/*--------------------------------*- C++ -*----------------------------------*\
| =========                 |                                                 |
| \\      /  F ield        | OpenFOAM: The Open Source CFD Toolbox           |
|  \\    /   O peration    | Version:  7                                     |
|   \\  /    A nd          | Web:      http://www.OpenFOAM.com               |
|    \\/     M anipulation |                                                 |
\*---------------------------------------------------------------------------*/

FoamFile
{
    version     2.0;
    format      ascii;
    class       dictionary;
    object      alpha_table;
}

dimensions      [0 2 -1 0 0 0 0];

alpha_table
1
(
101
(
1
(
101
(
 2.24224377e-05
 2.24224377e-05
 2.24224377e-05
 2.24224377e-05
 2.24224377e-05
 2.24224377e-05
 2.24224377e-05
 2.24224377e-05
 2.24224377e-05
 2.24224377e-05
 2.24224377e-05
 2.24224377e-05
 2.24224377e-05
 2.24224377e-05
 2.24224377e-05
 2.24224377e-05
 2.24224377e-05
 2.24224377e-05
 2.24224377e-05
 2.24224377e-05
 2.24224377e-05
 2.24224377e-05
 2.24224377e-05
 2.24224377e-05
 2.24224377e-05
 2.24224377e-05
 2.24224377e-05
 2.24224377e-05
 2.24224377e-05
 2.24224377e-05
 2.24224377e-05
 2.24224377e-05
 2.24224377e-05
 2.24224377e-05
 2.24224377e-05
 2.24224377e-05
 2.24224377e-05
 2.24224377e-05
 2.24224377e-05
 2.24224377e-05
 2.24224377e-05
 2.24224377e-05
 2.24224377e-05
 2.24224377e-05
 2.24224377e-05
 6.39246053e-05
 6.39246053e-05
 5.38452907e-05
 5.38452907e-05
 5.38452907e-05
 5.38452907e-05
 5.38452907e-05
 5.38452907e-05
 5.38452907e-05
 5.38452907e-05
 5.38452907e-05
 5.38452907e-05
 5.38452907e-05
 5.38452907e-05
 5.38452907e-05
 5.38452907e-05
 5.38452907e-05
 5.38452907e-05
 4.67014559e-05
 4.67014559e-05
 4.67014559e-05
 4.67014559e-05
 4.67014559e-05
 4.67014559e-05
 4.67014559e-05
 4.67014559e-05
 4.67014559e-05
 4.67014559e-05
 4.67014559e-05
 4.67014559e-05
 3.79596336e-05
 3.79596336e-05
 3.79596336e-05
 3.79596336e-05
 3.79596336e-05
 3.79596336e-05
 3.79596336e-05
 3.39941798e-05
 3.39941798e-05
 3.39941798e-05
 3.39941798e-05
 3.39941798e-05
 3.39941798e-05
 3.02512790e-05
 3.02512790e-05
 3.02512790e-05
 3.02512790e-05
 3.02512790e-05
 3.02512790e-05
 3.02512790e-05
 2.61593779e-05
 2.61593779e-05
 2.61593779e-05
 2.61593779e-05
 2.61593779e-05
 2.47288491e-05
)
)
1
(
101
(
 2.46451605e-05
 2.46451605e-05
 2.46451605e-05
 2.46451605e-05
 2.46451605e-05
 2.46451605e-05
 2.46451605e-05
 2.46451605e-05
 2.46451605e-05
 2.46451605e-05
 2.46451605e-05
 2.46451605e-05
 2.46451605e-05
 2.46451605e-05
 2.46451605e-05
 2.46451605e-05
 2.46451605e-05
 2.46451605e-05
 2.46451605e-05
 2.46451605e-05
 2.46451605e-05
 2.46451605e-05
 2.46451605e-05
 2.46451605e-05
 2.46451605e-05
 2.46451605e-05
 2.46451605e-05
 2.46451605e-05
 2.46451605e-05
 2.46451605e-05
 2.46451605e-05
 2.46451605e-05
 2.46451605e-05
 2.46451605e-05
 2.46451605e-05
 2.46451605e-05
 2.46451605e-05
 2.46451605e-05
 2.46451605e-05
 2.46451605e-05
 2.46451605e-05
 2.46451605e-05
 2.46451605e-05
 2.46451605e-05
 2.46451605e-05
 6.39246053e-05
 6.39246053e-05
 6.39246053e-05
 5.38452907e-05
 5.38452907e-05
 5.38452907e-05
 5.38452907e-05
 5.38452907e-05
 5.38452907e-05
 5.38452907e-05
 5.38452907e-05
 5.38452907e-05
 5.38452907e-05
 5.38452907e-05
 5.38452907e-05
 5.38452907e-05
 5.38452907e-05
 5.38452907e-05
 5.38452907e-05
 5.38452907e-05
 4.67014559e-05
 4.67014559e-05
 4.67014559e-05
 4.67014559e-05
 4.67014559e-05
 4.67014559e-05
 4.67014559e-05
 4.67014559e-05
 4.67014559e-05
 4.67014559e-05
 4.67014559e-05
 4.67014559e-05
 3.79596336e-05
 3.79596336e-05
 3.79596336e-05
 3.79596336e-05
 3.79596336e-05
 3.79596336e-05
 3.39941798e-05
 3.39941798e-05
 3.39941798e-05
 3.39941798e-05
 3.39941798e-05
 3.39941798e-05
 3.39941798e-05
 3.02512790e-05
 3.02512790e-05
 3.02512790e-05
 3.02512790e-05
 3.02512790e-05
 3.02512790e-05
 2.84216527e-05
 2.61593779e-05
 2.61593779e-05
 2.61593779e-05
 2.55436617e-05
)
)
1
(
101
(
 2.74628311e-05
 2.74628311e-05
 2.74628311e-05
 2.74628311e-05
 2.74628311e-05
 2.74628311e-05
 2.74628311e-05
 2.74628311e-05
 2.74628311e-05
 2.74628311e-05
 2.74628311e-05
 2.74628311e-05
 2.74628311e-05
 2.74628311e-05
 2.74628311e-05
 2.74628311e-05
 2.74628311e-05
 2.74628311e-05
 2.74628311e-05
 2.74628311e-05
 2.74628311e-05
 2.74628311e-05
 2.74628311e-05
 2.74628311e-05
 2.74628311e-05
 2.74628311e-05
 2.74628311e-05
 2.74628311e-05
 2.74628311e-05
 2.74628311e-05
 2.74628311e-05
 2.74628311e-05
 2.74628311e-05
 2.74628311e-05
 2.74628311e-05
 2.74628311e-05
 2.74628311e-05
 2.74628311e-05
 2.74628311e-05
 2.74628311e-05
 2.74628311e-05
 2.74628311e-05
 2.74628311e-05
 2.74628311e-05
 6.39246053e-05
 6.39246053e-05
 6.39246053e-05
 6.39246053e-05
 6.39246053e-05
 6.39246053e-05
 5.38452907e-05
 5.38452907e-05
 5.38452907e-05
 5.38452907e-05
 5.38452907e-05
 5.38452907e-05
 5.38452907e-05
 5.38452907e-05
 5.38452907e-05
 5.38452907e-05
 5.38452907e-05
 5.38452907e-05
 5.38452907e-05
 5.38452907e-05
 5.38452907e-05
 5.38452907e-05
 4.67014559e-05
 4.67014559e-05
 4.67014559e-05
 4.67014559e-05
 4.67014559e-05
 4.67014559e-05
 4.67014559e-05
 4.67014559e-05
 4.67014559e-05
 4.67014559e-05
 4.67014559e-05
 4.67014559e-05
 3.79596336e-05
 3.79596336e-05
 3.79596336e-05
 3.79596336e-05
 3.79596336e-05
 3.79596336e-05
 3.79596336e-05
 3.39941798e-05
 3.39941798e-05
 3.39941798e-05
 3.39941798e-05
 3.39941798e-05
 3.39941798e-05
 3.02512790e-05
 3.02512790e-05
 3.02512790e-05
 3.02512790e-05
 3.02512790e-05
 3.02512790e-05
 2.84216527e-05
 2.84216527e-05
 2.69388677e-05
 2.69388677e-05
)
)
1
(
101
(
 3.04097068e-05
 3.04097068e-05
 3.04097068e-05
 3.04097068e-05
 3.04097068e-05
 3.04097068e-05
 3.04097068e-05
 3.04097068e-05
 3.04097068e-05
 3.04097068e-05
 3.04097068e-05
 3.04097068e-05
 3.04097068e-05
 3.04097068e-05
 3.04097068e-05
 3.04097068e-05
 3.04097068e-05
 3.04097068e-05
 3.04097068e-05
 3.04097068e-05
 3.04097068e-05
 3.04097068e-05
 3.04097068e-05
 3.04097068e-05
 3.04097068e-05
 3.04097068e-05
 3.04097068e-05
 3.04097068e-05
 3.04097068e-05
 3.04097068e-05
 3.04097068e-05
 3.04097068e-05
 3.04097068e-05
 3.04097068e-05
 3.04097068e-05
 3.04097068e-05
 3.04097068e-05
 3.04097068e-05
 3.04097068e-05
 3.04097068e-05
 3.04097068e-05
 3.04097068e-05
 3.04097068e-05
 3.04097068e-05
 7.65965060e-05
 6.39246053e-05
 6.39246053e-05
 6.39246053e-05
 6.39246053e-05
 6.39246053e-05
 6.39246053e-05
 5.38452907e-05
 5.38452907e-05
 5.38452907e-05
 5.38452907e-05
 5.38452907e-05
 5.38452907e-05
 5.38452907e-05
 5.38452907e-05
 5.38452907e-05
 5.38452907e-05
 5.38452907e-05
 5.38452907e-05
 5.38452907e-05
 5.38452907e-05
 5.38452907e-05
 5.38452907e-05
 4.67014559e-05
 4.67014559e-05
 4.67014559e-05
 4.67014559e-05
 4.67014559e-05
 4.67014559e-05
 4.67014559e-05
 4.67014559e-05
 4.67014559e-05
 4.67014559e-05
 4.67014559e-05
 4.67014559e-05
 4.21286628e-05
 3.79596336e-05
 3.79596336e-05
 3.79596336e-05
 3.79596336e-05
 3.79596336e-05
 3.79596336e-05
 3.39941798e-05
 3.39941798e-05
 3.39941798e-05
 3.39941798e-05
 3.39941798e-05
 3.39941798e-05
 3.39941798e-05
 3.02512790e-05
 3.02512790e-05
 3.02512790e-05
 3.02512790e-05
 3.02512790e-05
 2.84216527e-05
 2.71881794e-05
 2.71881794e-05
)
)
1
(
101
(
 3.36603870e-05
 3.36603870e-05
 3.36603870e-05
 3.36603870e-05
 3.36603870e-05
 3.36603870e-05
 3.36603870e-05
 3.36603870e-05
 3.36603870e-05
 3.36603870e-05
 3.36603870e-05
 3.36603870e-05
 3.36603870e-05
 3.36603870e-05
 3.36603870e-05
 3.36603870e-05
 3.36603870e-05
 3.36603870e-05
 3.36603870e-05
 3.36603870e-05
 3.36603870e-05
 3.36603870e-05
 3.36603870e-05
 3.36603870e-05
 3.36603870e-05
 3.36603870e-05
 3.36603870e-05
 3.36603870e-05
 3.36603870e-05
 3.36603870e-05
 3.36603870e-05
 3.36603870e-05
 3.36603870e-05
 3.36603870e-05
 3.36603870e-05
 3.36603870e-05
 3.36603870e-05
 3.36603870e-05
 3.36603870e-05
 3.36603870e-05
 3.36603870e-05
 3.36603870e-05
 3.36603870e-05
 3.36603870e-05
 7.65965060e-05
 7.65965060e-05
 7.65965060e-05
 6.39246053e-05
 6.39246053e-05
 6.39246053e-05
 6.39246053e-05
 6.39246053e-05
 6.39246053e-05
 5.38452907e-05
 5.38452907e-05
 5.38452907e-05
 5.38452907e-05
 5.38452907e-05
 5.38452907e-05
 5.38452907e-05
 5.38452907e-05
 5.38452907e-05
 5.38452907e-05
 5.38452907e-05
 5.38452907e-05
 5.38452907e-05
 5.38452907e-05
 5.38452907e-05
 4.67014559e-05
 4.67014559e-05
 4.67014559e-05
 4.67014559e-05
 4.67014559e-05
 4.67014559e-05
 4.67014559e-05
 4.67014559e-05
 4.67014559e-05
 4.67014559e-05
 4.67014559e-05
 4.67014559e-05
 4.21286628e-05
 3.79596336e-05
 3.79596336e-05
 3.79596336e-05
 3.79596336e-05
 3.79596336e-05
 3.79596336e-05
 3.79596336e-05
 3.39941798e-05
 3.39941798e-05
 3.39941798e-05
 3.39941798e-05
 3.39941798e-05
 3.39941798e-05
 3.19095031e-05
 3.02512790e-05
 3.02512790e-05
 3.02512790e-05
 2.89788243e-05
 2.89788243e-05
 2.71881794e-05
)
)
1
(
101
(
 3.68492986e-05
 3.68492986e-05
 3.68492986e-05
 3.68492986e-05
 3.68492986e-05
 3.68492986e-05
 3.68492986e-05
 3.68492986e-05
 3.68492986e-05
 3.68492986e-05
 3.68492986e-05
 3.68492986e-05
 3.68492986e-05
 3.68492986e-05
 3.68492986e-05
 3.68492986e-05
 3.68492986e-05
 3.68492986e-05
 3.68492986e-05
 3.68492986e-05
 3.68492986e-05
 3.68492986e-05
 3.68492986e-05
 3.68492986e-05
 3.68492986e-05
 3.68492986e-05
 3.68492986e-05
 3.68492986e-05
 3.68492986e-05
 3.68492986e-05
 3.68492986e-05
 3.68492986e-05
 3.68492986e-05
 3.68492986e-05
 3.68492986e-05
 3.68492986e-05
 3.68492986e-05
 3.68492986e-05
 3.68492986e-05
 3.68492986e-05
 3.68492986e-05
 3.68492986e-05
 7.51867601e-05
 7.65965060e-05
 7.65965060e-05
 7.65965060e-05
 7.65965060e-05
 7.65965060e-05
 6.39246053e-05
 6.39246053e-05
 6.39246053e-05
 6.39246053e-05
 6.39246053e-05
 6.39246053e-05
 5.38452907e-05
 5.38452907e-05
 5.38452907e-05
 5.38452907e-05
 5.38452907e-05
 5.38452907e-05
 5.38452907e-05
 5.38452907e-05
 5.38452907e-05
 5.38452907e-05
 5.38452907e-05
 5.38452907e-05
 5.38452907e-05
 5.38452907e-05
 5.38452907e-05
 5.38452907e-05
 4.67014559e-05
 4.67014559e-05
 4.67014559e-05
 4.67014559e-05
 4.67014559e-05
 4.67014559e-05
 4.67014559e-05
 4.67014559e-05
 4.67014559e-05
 4.67014559e-05
 4.67014559e-05
 4.21286628e-05
 4.21286628e-05
 3.79596336e-05
 3.79596336e-05
 3.79596336e-05
 3.79596336e-05
 3.79596336e-05
 3.79596336e-05
 3.39941798e-05
 3.39941798e-05
 3.39941798e-05
 3.39941798e-05
 3.39941798e-05
 3.39941798e-05
 3.19095031e-05
 3.19095031e-05
 3.03103970e-05
 3.03103970e-05
 2.89788243e-05
 2.89788243e-05
)
)
1
(
101
(
 4.01988937e-05
 4.01988937e-05
 4.01988937e-05
 4.01988937e-05
 4.01988937e-05
 4.01988937e-05
 4.01988937e-05
 4.01988937e-05
 4.01988937e-05
 4.01988937e-05
 4.01988937e-05
 4.01988937e-05
 4.01988937e-05
 4.01988937e-05
 4.01988937e-05
 4.01988937e-05
 4.01988937e-05
 4.01988937e-05
 4.01988937e-05
 4.01988937e-05
 4.01988937e-05
 4.01988937e-05
 4.01988937e-05
 4.01988937e-05
 4.01988937e-05
 4.01988937e-05
 4.01988937e-05
 4.01988937e-05
 4.01988937e-05
 4.01988937e-05
 4.01988937e-05
 4.01988937e-05
 4.01988937e-05
 7.51867601e-05
 7.51867601e-05
 7.51867601e-05
 7.51867601e-05
 7.51867601e-05
 7.51867601e-05
 7.51867601e-05
 7.51867601e-05
 7.51867601e-05
 7.51867601e-05
 7.65965060e-05
 7.65965060e-05
 7.65965060e-05
 7.65965060e-05
 7.65965060e-05
 7.65965060e-05
 6.39246053e-05
 6.39246053e-05
 6.39246053e-05
 6.39246053e-05
 6.39246053e-05
 6.39246053e-05
 6.39246053e-05
 5.38452907e-05
 5.38452907e-05
 5.38452907e-05
 5.38452907e-05
 5.38452907e-05
 5.38452907e-05
 5.38452907e-05
 5.38452907e-05
 5.38452907e-05
 5.38452907e-05
 5.38452907e-05
 5.38452907e-05
 5.38452907e-05
 5.38452907e-05
 5.38452907e-05
 4.67014559e-05
 4.67014559e-05
 4.67014559e-05
 4.67014559e-05
 4.67014559e-05
 4.67014559e-05
 4.67014559e-05
 4.67014559e-05
 4.67014559e-05
 4.67014559e-05
 4.67014559e-05
 4.21286628e-05
 4.21286628e-05
 3.79596336e-05
 3.79596336e-05
 3.79596336e-05
 3.79596336e-05
 3.79596336e-05
 3.79596336e-05
 3.79596336e-05
 3.39941798e-05
 3.39941798e-05
 3.39941798e-05
 3.39941798e-05
 3.39941798e-05
 3.19095031e-05
 3.19095031e-05
 3.03103970e-05
 3.03103970e-05
 2.89788243e-05
)
)
1
(
101
(
 4.39273106e-05
 4.39273106e-05
 4.39273106e-05
 4.39273106e-05
 4.39273106e-05
 4.39273106e-05
 4.39273106e-05
 4.39273106e-05
 4.39273106e-05
 4.39273106e-05
 4.39273106e-05
 4.39273106e-05
 4.39273106e-05
 4.39273106e-05
 4.39273106e-05
 4.39273106e-05
 4.39273106e-05
 4.39273106e-05
 4.39273106e-05
 4.39273106e-05
 4.39273106e-05
 4.39273106e-05
 4.39273106e-05
 4.39273106e-05
 4.39273106e-05
 4.39273106e-05
 7.51867601e-05
 7.51867601e-05
 7.51867601e-05
 7.51867601e-05
 7.51867601e-05
 7.51867601e-05
 7.51867601e-05
 7.51867601e-05
 7.51867601e-05
 7.51867601e-05
 7.51867601e-05
 7.51867601e-05
 7.51867601e-05
 7.51867601e-05
 7.51867601e-05
 7.51867601e-05
 7.51867601e-05
 7.65965060e-05
 7.65965060e-05
 7.65965060e-05
 7.65965060e-05
 7.65965060e-05
 7.65965060e-05
 7.65965060e-05
 6.39246053e-05
 6.39246053e-05
 6.39246053e-05
 6.39246053e-05
 6.39246053e-05
 6.39246053e-05
 6.39246053e-05
 5.38452907e-05
 5.38452907e-05
 5.38452907e-05
 5.38452907e-05
 5.38452907e-05
 5.38452907e-05
 5.38452907e-05
 5.38452907e-05
 5.38452907e-05
 5.38452907e-05
 5.38452907e-05
 5.38452907e-05
 5.38452907e-05
 5.38452907e-05
 5.38452907e-05
 4.67014559e-05
 4.67014559e-05
 4.67014559e-05
 4.67014559e-05
 4.67014559e-05
 4.67014559e-05
 4.67014559e-05
 4.67014559e-05
 4.67014559e-05
 4.67014559e-05
 4.67014559e-05
 4.21286628e-05
 4.21286628e-05
 4.21286628e-05
 3.79596336e-05
 3.79596336e-05
 3.79596336e-05
 3.79596336e-05
 3.79596336e-05
 3.79596336e-05
 3.61947644e-05
 3.39941798e-05
 3.39941798e-05
 3.39941798e-05
 3.16251923e-05
 3.16251923e-05
 3.16251923e-05
 3.03103970e-05
 3.03103970e-05
)
)
1
(
101
(
 4.77917247e-05
 4.77917247e-05
 4.77917247e-05
 4.77917247e-05
 4.77917247e-05
 4.77917247e-05
 4.77917247e-05
 4.77917247e-05
 4.77917247e-05
 4.77917247e-05
 4.77917247e-05
 4.77917247e-05
 4.77917247e-05
 4.77917247e-05
 4.77917247e-05
 4.77917247e-05
 4.77917247e-05
 4.77917247e-05
 4.77917247e-05
 7.51867601e-05
 7.51867601e-05
 7.51867601e-05
 7.51867601e-05
 7.51867601e-05
 7.51867601e-05
 7.51867601e-05
 7.51867601e-05
 7.51867601e-05
 7.51867601e-05
 7.51867601e-05
 7.51867601e-05
 7.51867601e-05
 7.51867601e-05
 7.51867601e-05
 7.51867601e-05
 7.51867601e-05
 7.51867601e-05
 7.51867601e-05
 7.51867601e-05
 7.51867601e-05
 7.51867601e-05
 7.51867601e-05
 7.65965060e-05
 7.65965060e-05
 7.65965060e-05
 7.65965060e-05
 7.65965060e-05
 7.65965060e-05
 7.65965060e-05
 7.65965060e-05
 7.65965060e-05
 6.39246053e-05
 6.39246053e-05
 6.39246053e-05
 6.39246053e-05
 6.39246053e-05
 6.39246053e-05
 6.39246053e-05
 6.39246053e-05
 5.38452907e-05
 5.38452907e-05
 5.38452907e-05
 5.38452907e-05
 5.38452907e-05
 5.38452907e-05
 5.38452907e-05
 5.38452907e-05
 5.38452907e-05
 5.38452907e-05
 5.38452907e-05
 5.38452907e-05
 5.38452907e-05
 5.38452907e-05
 4.67014559e-05
 4.67014559e-05
 4.67014559e-05
 4.67014559e-05
 4.67014559e-05
 4.67014559e-05
 4.67014559e-05
 4.67014559e-05
 4.67014559e-05
 4.67014559e-05
 4.67014559e-05
 4.21286628e-05
 4.21286628e-05
 4.21286628e-05
 3.79596336e-05
 3.79596336e-05
 3.79596336e-05
 3.79596336e-05
 3.79596336e-05
 3.79596336e-05
 3.61947644e-05
 3.61947644e-05
 3.41909510e-05
 3.41909510e-05
 3.16251923e-05
 3.16251923e-05
 3.16251923e-05
 3.16251923e-05
)
)
1
(
101
(
 5.17118640e-05
 5.17118640e-05
 5.17118640e-05
 5.17118640e-05
 5.17118640e-05
 5.17118640e-05
 5.17118640e-05
 5.17118640e-05
 5.17118640e-05
 5.17118640e-05
 5.17118640e-05
 5.17118640e-05
 5.17118640e-05
 5.17118640e-05
 7.51867601e-05
 7.51867601e-05
 7.51867601e-05
 7.51867601e-05
 7.51867601e-05
 7.51867601e-05
 7.51867601e-05
 7.51867601e-05
 7.51867601e-05
 7.51867601e-05
 7.51867601e-05
 7.51867601e-05
 7.51867601e-05
 7.51867601e-05
 7.51867601e-05
 7.51867601e-05
 7.51867601e-05
 7.51867601e-05
 7.51867601e-05
 7.51867601e-05
 7.51867601e-05
 7.51867601e-05
 7.51867601e-05
 7.51867601e-05
 7.51867601e-05
 7.51867601e-05
 7.51867601e-05
 7.51867601e-05
 7.65965060e-05
 7.65965060e-05
 7.65965060e-05
 7.65965060e-05
 7.65965060e-05
 7.65965060e-05
 7.65965060e-05
 7.65965060e-05
 7.65965060e-05
 7.65965060e-05
 6.39246053e-05
 6.39246053e-05
 6.39246053e-05
 6.39246053e-05
 6.39246053e-05
 6.39246053e-05
 6.39246053e-05
 6.39246053e-05
 5.38452907e-05
 5.38452907e-05
 5.38452907e-05
 5.38452907e-05
 5.38452907e-05
 5.38452907e-05
 5.38452907e-05
 5.38452907e-05
 5.38452907e-05
 5.38452907e-05
 5.38452907e-05
 5.38452907e-05
 5.38452907e-05
 5.38452907e-05
 5.38452907e-05
 4.67014559e-05
 4.67014559e-05
 4.67014559e-05
 4.67014559e-05
 4.67014559e-05
 4.67014559e-05
 4.67014559e-05
 4.67014559e-05
 4.67014559e-05
 4.67014559e-05
 4.21286628e-05
 4.21286628e-05
 4.21286628e-05
 4.21286628e-05
 3.79596336e-05
 3.79596336e-05
 3.79596336e-05
 3.79596336e-05
 3.79596336e-05
 3.61947644e-05
 3.61947644e-05
 3.41909510e-05
 3.41909510e-05
 3.16251923e-05
 3.16251923e-05
 3.16251923e-05
)
)
1
(
101
(
 5.59991438e-05
 5.59991438e-05
 5.59991438e-05
 5.59991438e-05
 5.59991438e-05
 5.59991438e-05
 5.59991438e-05
 5.59991438e-05
 5.59991438e-05
 7.51867601e-05
 7.51867601e-05
 7.51867601e-05
 7.51867601e-05
 7.51867601e-05
 7.51867601e-05
 7.51867601e-05
 7.51867601e-05
 7.51867601e-05
 7.51867601e-05
 7.51867601e-05
 7.51867601e-05
 7.51867601e-05
 7.51867601e-05
 7.51867601e-05
 7.51867601e-05
 7.51867601e-05
 7.51867601e-05
 7.51867601e-05
 7.51867601e-05
 7.51867601e-05
 7.51867601e-05
 7.51867601e-05
 7.51867601e-05
 7.51867601e-05
 7.51867601e-05
 7.51867601e-05
 7.51867601e-05
 7.51867601e-05
 7.51867601e-05
 7.51867601e-05
 7.51867601e-05
 7.51867601e-05
 7.65965060e-05
 7.65965060e-05
 7.65965060e-05
 7.65965060e-05
 7.65965060e-05
 7.65965060e-05
 7.65965060e-05
 7.65965060e-05
 7.65965060e-05
 7.65965060e-05
 7.65965060e-05
 7.65965060e-05
 6.39246053e-05
 6.39246053e-05
 6.39246053e-05
 6.39246053e-05
 6.39246053e-05
 6.39246053e-05
 6.39246053e-05
 6.39246053e-05
 5.38452907e-05
 5.38452907e-05
 5.38452907e-05
 5.38452907e-05
 5.38452907e-05
 5.38452907e-05
 5.38452907e-05
 5.38452907e-05
 5.38452907e-05
 5.38452907e-05
 5.38452907e-05
 5.38452907e-05
 5.38452907e-05
 5.38452907e-05
 4.67014559e-05
 4.67014559e-05
 4.67014559e-05
 4.67014559e-05
 4.67014559e-05
 4.67014559e-05
 4.67014559e-05
 4.67014559e-05
 4.67014559e-05
 4.67014559e-05
 4.21286628e-05
 4.21286628e-05
 4.21286628e-05
 4.21286628e-05
 4.01424045e-05
 3.79596336e-05
 3.79596336e-05
 3.79596336e-05
 3.79596336e-05
 3.61947644e-05
 3.61947644e-05
 3.41909510e-05
 3.41909510e-05
 3.16251923e-05
 3.16251923e-05
)
)
1
(
101
(
 6.00857895e-05
 6.00857895e-05
 6.00857895e-05
 6.00857895e-05
 6.00857895e-05
 6.00857895e-05
 7.51867601e-05
 7.51867601e-05
 7.51867601e-05
 7.51867601e-05
 7.51867601e-05
 7.51867601e-05
 7.51867601e-05
 7.51867601e-05
 7.51867601e-05
 7.51867601e-05
 7.51867601e-05
 7.51867601e-05
 7.51867601e-05
 7.51867601e-05
 7.51867601e-05
 7.51867601e-05
 7.51867601e-05
 7.51867601e-05
 7.51867601e-05
 7.51867601e-05
 7.51867601e-05
 7.51867601e-05
 7.51867601e-05
 7.51867601e-05
 7.51867601e-05
 7.51867601e-05
 7.51867601e-05
 7.51867601e-05
 7.51867601e-05
 7.51867601e-05
 7.51867601e-05
 7.51867601e-05
 7.51867601e-05
 7.51867601e-05
 7.51867601e-05
 7.51867601e-05
 7.65965060e-05
 7.65965060e-05
 7.65965060e-05
 7.65965060e-05
 7.65965060e-05
 7.65965060e-05
 7.65965060e-05
 7.65965060e-05
 7.65965060e-05
 7.65965060e-05
 7.65965060e-05
 7.65965060e-05
 7.65965060e-05
 6.39246053e-05
 6.39246053e-05
 6.39246053e-05
 6.39246053e-05
 6.39246053e-05
 6.39246053e-05
 6.39246053e-05
 6.39246053e-05
 5.38452907e-05
 5.38452907e-05
 5.38452907e-05
 5.38452907e-05
 5.38452907e-05
 5.38452907e-05
 5.38452907e-05
 5.38452907e-05
 5.38452907e-05
 5.38452907e-05
 5.38452907e-05
 5.38452907e-05
 5.38452907e-05
 5.38452907e-05
 4.67014559e-05
 4.67014559e-05
 4.67014559e-05
 4.67014559e-05
 4.67014559e-05
 4.67014559e-05
 4.67014559e-05
 4.67014559e-05
 4.67014559e-05
 4.67014559e-05
 4.21286628e-05
 4.21286628e-05
 4.21286628e-05
 4.21286628e-05
 4.01424045e-05
 4.01424045e-05
 3.66528261e-05
 3.66528261e-05
 3.66528261e-05
 3.61947644e-05
 3.61947644e-05
 3.41909510e-05
 3.41909510e-05
 3.16251923e-05
)
)
1
(
101
(
 6.49616583e-05
 6.49616583e-05
 6.49616583e-05
 7.51867601e-05
 7.51867601e-05
 7.51867601e-05
 7.51867601e-05
 7.51867601e-05
 7.51867601e-05
 7.51867601e-05
 7.51867601e-05
 7.51867601e-05
 7.51867601e-05
 7.51867601e-05
 7.51867601e-05
 7.51867601e-05
 7.51867601e-05
 7.51867601e-05
 7.51867601e-05
 7.51867601e-05
 7.51867601e-05
 7.51867601e-05
 7.51867601e-05
 7.51867601e-05
 7.51867601e-05
 7.51867601e-05
 7.51867601e-05
 7.51867601e-05
 7.51867601e-05
 7.51867601e-05
 7.51867601e-05
 7.51867601e-05
 7.51867601e-05
 7.51867601e-05
 7.51867601e-05
 7.51867601e-05
 7.51867601e-05
 7.51867601e-05
 7.51867601e-05
 7.51867601e-05
 7.51867601e-05
 8.99268547e-05
 7.65965060e-05
 7.65965060e-05
 7.65965060e-05
 7.65965060e-05
 7.65965060e-05
 7.65965060e-05
 7.65965060e-05
 7.65965060e-05
 7.65965060e-05
 7.65965060e-05
 7.65965060e-05
 7.65965060e-05
 7.65965060e-05
 7.65965060e-05
 6.39246053e-05
 6.39246053e-05
 6.39246053e-05
 6.39246053e-05
 6.39246053e-05
 6.39246053e-05
 6.39246053e-05
 6.39246053e-05
 6.39246053e-05
 5.38452907e-05
 5.38452907e-05
 5.38452907e-05
 5.38452907e-05
 5.38452907e-05
 5.38452907e-05
 5.38452907e-05
 5.38452907e-05
 5.38452907e-05
 5.38452907e-05
 5.38452907e-05
 5.38452907e-05
 5.38452907e-05
 4.67014559e-05
 4.67014559e-05
 4.67014559e-05
 4.67014559e-05
 4.67014559e-05
 4.67014559e-05
 4.67014559e-05
 4.67014559e-05
 4.67014559e-05
 4.67014559e-05
 4.21286628e-05
 4.21286628e-05
 4.21286628e-05
 4.21286628e-05
 4.01424045e-05
 4.01424045e-05
 3.66528261e-05
 3.66528261e-05
 3.66528261e-05
 3.66528261e-05
 3.61947644e-05
 3.41909510e-05
 3.41909510e-05
)
)
1
(
101
(
 6.85100324e-05
 6.85100324e-05
 7.51867601e-05
 7.51867601e-05
 7.51867601e-05
 7.51867601e-05
 7.51867601e-05
 7.51867601e-05
 7.51867601e-05
 7.51867601e-05
 7.51867601e-05
 7.51867601e-05
 7.51867601e-05
 7.51867601e-05
 7.51867601e-05
 7.51867601e-05
 7.51867601e-05
 7.51867601e-05
 7.51867601e-05
 7.51867601e-05
 7.51867601e-05
 7.51867601e-05
 7.51867601e-05
 7.51867601e-05
 7.51867601e-05
 7.51867601e-05
 7.51867601e-05
 7.51867601e-05
 7.51867601e-05
 7.51867601e-05
 7.51867601e-05
 7.51867601e-05
 7.51867601e-05
 7.51867601e-05
 7.51867601e-05
 7.51867601e-05
 7.51867601e-05
 7.51867601e-05
 7.51867601e-05
 7.51867601e-05
 7.51867601e-05
 8.99268547e-05
 8.99268547e-05
 7.65965060e-05
 7.65965060e-05
 7.65965060e-05
 7.65965060e-05
 7.65965060e-05
 7.65965060e-05
 7.65965060e-05
 7.65965060e-05
 7.65965060e-05
 7.65965060e-05
 7.65965060e-05
 7.65965060e-05
 7.65965060e-05
 7.65965060e-05
 6.39246053e-05
 6.39246053e-05
 6.39246053e-05
 6.39246053e-05
 6.39246053e-05
 6.39246053e-05
 6.39246053e-05
 6.39246053e-05
 6.39246053e-05
 5.38452907e-05
 5.38452907e-05
 5.38452907e-05
 5.38452907e-05
 5.38452907e-05
 5.38452907e-05
 5.38452907e-05
 5.38452907e-05
 5.38452907e-05
 5.38452907e-05
 5.38452907e-05
 5.38452907e-05
 5.38452907e-05
 5.38452907e-05
 4.67014559e-05
 4.67014559e-05
 4.67014559e-05
 4.67014559e-05
 4.67014559e-05
 4.67014559e-05
 4.67014559e-05
 4.67014559e-05
 4.43762094e-05
 4.21286628e-05
 4.21286628e-05
 4.21286628e-05
 3.78722620e-05
 3.78722620e-05
 3.78722620e-05
 3.66528261e-05
 3.66528261e-05
 3.66528261e-05
 3.66528261e-05
 3.66528261e-05
 3.41909510e-05
)
)
1
(
101
(
 7.18691962e-05
 7.51867601e-05
 7.51867601e-05
 7.51867601e-05
 7.51867601e-05
 7.51867601e-05
 7.51867601e-05
 7.51867601e-05
 7.51867601e-05
 7.51867601e-05
 7.51867601e-05
 7.51867601e-05
 7.51867601e-05
 7.51867601e-05
 7.51867601e-05
 7.51867601e-05
 7.51867601e-05
 7.51867601e-05
 7.51867601e-05
 7.51867601e-05
 7.51867601e-05
 7.51867601e-05
 7.51867601e-05
 7.51867601e-05
 7.51867601e-05
 7.51867601e-05
 7.51867601e-05
 7.51867601e-05
 7.51867601e-05
 7.51867601e-05
 7.51867601e-05
 7.51867601e-05
 7.51867601e-05
 7.51867601e-05
 7.51867601e-05
 7.51867601e-05
 7.51867601e-05
 7.51867601e-05
 7.51867601e-05
 7.51867601e-05
 8.99268547e-05
 8.99268547e-05
 8.99268547e-05
 8.99268547e-05
 7.65965060e-05
 7.65965060e-05
 7.65965060e-05
 7.65965060e-05
 7.65965060e-05
 7.65965060e-05
 7.65965060e-05
 7.65965060e-05
 7.65965060e-05
 7.65965060e-05
 7.65965060e-05
 7.65965060e-05
 7.65965060e-05
 7.65965060e-05
 6.39246053e-05
 6.39246053e-05
 6.39246053e-05
 6.39246053e-05
 6.39246053e-05
 6.39246053e-05
 6.39246053e-05
 6.39246053e-05
 6.39246053e-05
 6.39246053e-05
 5.38452907e-05
 5.38452907e-05
 5.38452907e-05
 5.38452907e-05
 5.38452907e-05
 5.38452907e-05
 5.38452907e-05
 5.38452907e-05
 5.38452907e-05
 5.38452907e-05
 5.38452907e-05
 5.38452907e-05
 5.38452907e-05
 4.95332546e-05
 4.67014559e-05
 4.67014559e-05
 4.67014559e-05
 4.67014559e-05
 4.67014559e-05
 4.67014559e-05
 4.67014559e-05
 4.43762094e-05
 4.43762094e-05
 4.26091764e-05
 4.26091764e-05
 3.78722620e-05
 3.78722620e-05
 3.78722620e-05
 3.78722620e-05
 3.66528261e-05
 3.66528261e-05
 3.66528261e-05
 3.66528261e-05
)
)
1
(
101
(
 7.18691962e-05
 7.81382861e-05
 7.81382861e-05
 7.81382861e-05
 7.81382861e-05
 7.81382861e-05
 7.81382861e-05
 7.81382861e-05
 7.81382861e-05
 7.81382861e-05
 7.81382861e-05
 7.81382861e-05
 7.81382861e-05
 7.81382861e-05
 7.81382861e-05
 7.81382861e-05
 7.81382861e-05
 7.81382861e-05
 7.81382861e-05
 7.81382861e-05
 7.81382861e-05
 7.81382861e-05
 7.81382861e-05
 7.81382861e-05
 7.81382861e-05
 7.81382861e-05
 7.81382861e-05
 7.81382861e-05
 7.81382861e-05
 7.81382861e-05
 7.81382861e-05
 7.81382861e-05
 7.81382861e-05
 7.81382861e-05
 7.81382861e-05
 7.81382861e-05
 7.81382861e-05
 7.81382861e-05
 7.81382861e-05
 7.81382861e-05
 8.99268547e-05
 8.99268547e-05
 8.99268547e-05
 8.99268547e-05
 8.99268547e-05
 7.65965060e-05
 7.65965060e-05
 7.65965060e-05
 7.65965060e-05
 7.65965060e-05
 7.65965060e-05
 7.65965060e-05
 7.65965060e-05
 7.65965060e-05
 7.65965060e-05
 7.65965060e-05
 7.65965060e-05
 7.65965060e-05
 7.65965060e-05
 6.39246053e-05
 6.39246053e-05
 6.39246053e-05
 6.39246053e-05
 6.39246053e-05
 6.39246053e-05
 6.39246053e-05
 6.39246053e-05
 6.39246053e-05
 6.39246053e-05
 5.38452907e-05
 5.38452907e-05
 5.38452907e-05
 5.38452907e-05
 5.38452907e-05
 5.38452907e-05
 5.38452907e-05
 5.38452907e-05
 5.38452907e-05
 5.38452907e-05
 5.38452907e-05
 5.38452907e-05
 5.38452907e-05
 4.95332546e-05
 4.95332546e-05
 4.67014559e-05
 4.67014559e-05
 4.67014559e-05
 4.67014559e-05
 4.67014559e-05
 4.43762094e-05
 4.43762094e-05
 4.43762094e-05
 4.26091764e-05
 4.26091764e-05
 3.78722620e-05
 3.78722620e-05
 3.78722620e-05
 3.78722620e-05
 3.78722620e-05
 3.66528261e-05
 3.66528261e-05
)
)
1
(
101
(
 8.34890595e-05
 8.34890595e-05
 8.34890595e-05
 8.34890595e-05
 8.34890595e-05
 8.34890595e-05
 8.34890595e-05
 8.34890595e-05
 8.34890595e-05
 8.34890595e-05
 8.34890595e-05
 8.34890595e-05
 8.34890595e-05
 8.34890595e-05
 8.34890595e-05
 8.34890595e-05
 8.34890595e-05
 8.34890595e-05
 8.34890595e-05
 8.34890595e-05
 8.34890595e-05
 8.34890595e-05
 8.34890595e-05
 8.34890595e-05
 8.34890595e-05
 8.34890595e-05
 8.34890595e-05
 8.34890595e-05
 8.34890595e-05
 8.34890595e-05
 8.34890595e-05
 8.34890595e-05
 8.34890595e-05
 8.34890595e-05
 8.34890595e-05
 8.34890595e-05
 8.34890595e-05
 8.34890595e-05
 8.34890595e-05
 8.34890595e-05
 8.99268547e-05
 8.99268547e-05
 8.99268547e-05
 8.99268547e-05
 8.99268547e-05
 8.99268547e-05
 7.65965060e-05
 7.65965060e-05
 7.65965060e-05
 7.65965060e-05
 7.65965060e-05
 7.65965060e-05
 7.65965060e-05
 7.65965060e-05
 7.65965060e-05
 7.65965060e-05
 7.65965060e-05
 7.65965060e-05
 7.65965060e-05
 7.65965060e-05
 7.65965060e-05
 6.39246053e-05
 6.39246053e-05
 6.39246053e-05
 6.39246053e-05
 6.39246053e-05
 6.39246053e-05
 6.39246053e-05
 6.39246053e-05
 6.39246053e-05
 6.39246053e-05
 5.38452907e-05
 5.38452907e-05
 5.38452907e-05
 5.38452907e-05
 5.38452907e-05
 5.38452907e-05
 5.38452907e-05
 5.38452907e-05
 5.38452907e-05
 5.38452907e-05
 5.38452907e-05
 5.38452907e-05
 4.95332546e-05
 4.95332546e-05
 4.95332546e-05
 4.67014559e-05
 4.67014559e-05
 4.67014559e-05
 4.67014559e-05
 4.43762094e-05
 4.43762094e-05
 4.43762094e-05
 4.26091764e-05
 4.26091764e-05
 3.78722620e-05
 3.78722620e-05
 3.78722620e-05
 3.78722620e-05
 3.78722620e-05
 3.78722620e-05
)
)
1
(
101
(
 8.84849304e-05
 8.84849304e-05
 8.84849304e-05
 8.84849304e-05
 8.84849304e-05
 8.84849304e-05
 8.84849304e-05
 8.84849304e-05
 8.84849304e-05
 8.84849304e-05
 8.84849304e-05
 8.84849304e-05
 8.84849304e-05
 8.84849304e-05
 8.84849304e-05
 8.84849304e-05
 8.84849304e-05
 8.84849304e-05
 8.84849304e-05
 8.84849304e-05
 8.84849304e-05
 8.84849304e-05
 8.84849304e-05
 8.84849304e-05
 8.84849304e-05
 8.84849304e-05
 8.84849304e-05
 8.84849304e-05
 8.84849304e-05
 8.84849304e-05
 8.84849304e-05
 8.84849304e-05
 8.84849304e-05
 8.84849304e-05
 8.84849304e-05
 8.84849304e-05
 8.84849304e-05
 8.84849304e-05
 8.84849304e-05
 8.99268547e-05
 8.99268547e-05
 8.99268547e-05
 8.99268547e-05
 8.99268547e-05
 8.99268547e-05
 8.99268547e-05
 8.99268547e-05
 8.99268547e-05
 7.65965060e-05
 7.65965060e-05
 7.65965060e-05
 7.65965060e-05
 7.65965060e-05
 7.65965060e-05
 7.65965060e-05
 7.65965060e-05
 7.65965060e-05
 7.65965060e-05
 7.65965060e-05
 7.65965060e-05
 7.65965060e-05
 7.65965060e-05
 6.39246053e-05
 6.39246053e-05
 6.39246053e-05
 6.39246053e-05
 6.39246053e-05
 6.39246053e-05
 6.39246053e-05
 6.39246053e-05
 6.39246053e-05
 6.39246053e-05
 5.38452907e-05
 5.38452907e-05
 5.38452907e-05
 5.38452907e-05
 5.38452907e-05
 5.38452907e-05
 5.38452907e-05
 5.38452907e-05
 5.38452907e-05
 5.38452907e-05
 5.38452907e-05
 5.38452907e-05
 4.95332546e-05
 4.95332546e-05
 4.95332546e-05
 4.95332546e-05
 4.78345906e-05
 4.78345906e-05
 4.78345906e-05
 4.43762094e-05
 4.43762094e-05
 4.43762094e-05
 4.26091764e-05
 4.26091764e-05