/*--------------------------------*- C++ -*----------------------------------*\
| =========                 |                                                 |
| \\      /  F ield        | OpenFOAM: The Open Source CFD Toolbox           |
|  \\    /   O peration    | Version:  7                                     |
|   \\  /    A nd          | Web:      http://www.OpenFOAM.com               |
|    \\/     M anipulation |                                                 |
\*---------------------------------------------------------------------------*/

FoamFile
{
    version     2.0;
    format      ascii;
    class       dictionary;
    object      mu_table;
}

dimensions      [1 -1 -1 0 0 0 0];

mu_table
1
(
101
(
1
(
101
(
 1.86488944e-05
 1.86488944e-05
 1.86488944e-05
 1.86488944e-05
 1.86488944e-05
 1.86488944e-05
 1.86488944e-05
 1.86488944e-05
 1.86488944e-05
 1.86488944e-05
 1.86488944e-05
 1.86488944e-05
 1.86488944e-05
 1.86488944e-05
 1.86488944e-05
 1.86488944e-05
 1.86488944e-05
 1.86488944e-05
 1.86488944e-05
 1.86488944e-05
 1.86488944e-05
 1.86488944e-05
 1.86488944e-05
 1.86488944e-05
 1.86488944e-05
 1.86488944e-05
 1.86488944e-05
 1.86488944e-05
 1.86488944e-05
 1.86488944e-05
 1.86488944e-05
 1.86488944e-05
 1.86488944e-05
 1.86488944e-05
 1.86488944e-05
 1.86488944e-05
 1.86488944e-05
 1.86488944e-05
 1.86488944e-05
 1.86488944e-05
 1.86488944e-05
 1.86488944e-05
 1.86488944e-05
 1.86488944e-05
 1.86488944e-05
 1.86938941e-05
 1.86938941e-05
 1.71060088e-05
 1.71060088e-05
 1.71060088e-05
 1.71060088e-05
 1.71060088e-05
 1.71060088e-05
 1.71060088e-05
 1.71060088e-05
 1.71060088e-05
 1.71060088e-05
 1.71060088e-05
 1.71060088e-05
 1.71060088e-05
 1.71060088e-05
 1.71060088e-05
 1.71060088e-05
 1.58597140e-05
 1.58597140e-05
 1.58597140e-05
 1.58597140e-05
 1.58597140e-05
 1.58597140e-05
 1.58597140e-05
 1.58597140e-05
 1.58597140e-05
 1.58597140e-05
 1.58597140e-05
 1.58597140e-05
 1.41891813e-05
 1.41891813e-05
 1.41891813e-05
 1.41891813e-05
 1.41891813e-05
 1.41891813e-05
 1.41891813e-05
 1.34220678e-05
 1.34220678e-05
 1.34220678e-05
 1.34220678e-05
 1.34220678e-05
 1.34220678e-05
 1.26559419e-05
 1.26559419e-05
 1.26559419e-05
 1.26559419e-05
 1.26559419e-05
 1.26559419e-05
 1.26559419e-05
 1.17587694e-05
 1.17587694e-05
 1.17587694e-05
 1.17587694e-05
 1.17587694e-05
 1.14583002e-05
)
)
1
(
101
(
 1.94264256e-05
 1.94264256e-05
 1.94264256e-05
 1.94264256e-05
 1.94264256e-05
 1.94264256e-05
 1.94264256e-05
 1.94264256e-05
 1.94264256e-05
 1.94264256e-05
 1.94264256e-05
 1.94264256e-05
 1.94264256e-05
 1.94264256e-05
 1.94264256e-05
 1.94264256e-05
 1.94264256e-05
 1.94264256e-05
 1.94264256e-05
 1.94264256e-05
 1.94264256e-05
 1.94264256e-05
 1.94264256e-05
 1.94264256e-05
 1.94264256e-05
 1.94264256e-05
 1.94264256e-05
 1.94264256e-05
 1.94264256e-05
 1.94264256e-05
 1.94264256e-05
 1.94264256e-05
 1.94264256e-05
 1.94264256e-05
 1.94264256e-05
 1.94264256e-05
 1.94264256e-05
 1.94264256e-05
 1.94264256e-05
 1.94264256e-05
 1.94264256e-05
 1.94264256e-05
 1.94264256e-05
 1.94264256e-05
 1.94264256e-05
 1.86938941e-05
 1.86938941e-05
 1.86938941e-05
 1.71060088e-05
 1.71060088e-05
 1.71060088e-05
 1.71060088e-05
 1.71060088e-05
 1.71060088e-05
 1.71060088e-05
 1.71060088e-05
 1.71060088e-05
 1.71060088e-05
 1.71060088e-05
 1.71060088e-05
 1.71060088e-05
 1.71060088e-05
 1.71060088e-05
 1.71060088e-05
 1.71060088e-05
 1.58597140e-05
 1.58597140e-05
 1.58597140e-05
 1.58597140e-05
 1.58597140e-05
 1.58597140e-05
 1.58597140e-05
 1.58597140e-05
 1.58597140e-05
 1.58597140e-05
 1.58597140e-05
 1.58597140e-05
 1.41891813e-05
 1.41891813e-05
 1.41891813e-05
 1.41891813e-05
 1.41891813e-05
 1.41891813e-05
 1.34220678e-05
 1.34220678e-05
 1.34220678e-05
 1.34220678e-05
 1.34220678e-05
 1.34220678e-05
 1.34220678e-05
 1.26559419e-05
 1.26559419e-05
 1.26559419e-05
 1.26559419e-05
 1.26559419e-05
 1.26559419e-05
 1.22541954e-05
 1.17587694e-05
 1.17587694e-05
 1.17587694e-05
 1.16175096e-05
)
)
1
(
101
(
 2.03398678e-05
 2.03398678e-05
 2.03398678e-05
 2.03398678e-05
 2.03398678e-05
 2.03398678e-05
 2.03398678e-05
 2.03398678e-05
 2.03398678e-05
 2.03398678e-05
 2.03398678e-05
 2.03398678e-05
 2.03398678e-05
 2.03398678e-05
 2.03398678e-05
 2.03398678e-05
 2.03398678e-05
 2.03398678e-05
 2.03398678e-05
 2.03398678e-05
 2.03398678e-05
 2.03398678e-05
 2.03398678e-05
 2.03398678e-05
 2.03398678e-05
 2.03398678e-05
 2.03398678e-05
 2.03398678e-05
 2.03398678e-05
 2.03398678e-05
 2.03398678e-05
 2.03398678e-05
 2.03398678e-05
 2.03398678e-05
 2.03398678e-05
 2.03398678e-05
 2.03398678e-05
 2.03398678e-05
 2.03398678e-05
 2.03398678e-05
 2.03398678e-05
 2.03398678e-05
 2.03398678e-05
 2.03398678e-05
 1.86938941e-05
 1.86938941e-05
 1.86938941e-05
 1.86938941e-05
 1.86938941e-05
 1.86938941e-05
 1.71060088e-05
 1.71060088e-05
 1.71060088e-05
 1.71060088e-05
 1.71060088e-05
 1.71060088e-05
 1.71060088e-05
 1.71060088e-05
 1.71060088e-05
 1.71060088e-05
 1.71060088e-05
 1.71060088e-05
 1.71060088e-05
 1.71060088e-05
 1.71060088e-05
 1.71060088e-05
 1.58597140e-05
 1.58597140e-05
 1.58597140e-05
 1.58597140e-05
 1.58597140e-05
 1.58597140e-05
 1.58597140e-05
 1.58597140e-05
 1.58597140e-05
 1.58597140e-05
 1.58597140e-05
 1.58597140e-05
 1.41891813e-05
 1.41891813e-05
 1.41891813e-05
 1.41891813e-05
 1.41891813e-05
 1.41891813e-05
 1.41891813e-05
 1.34220678e-05
 1.34220678e-05
 1.34220678e-05
 1.34220678e-05
 1.34220678e-05
 1.34220678e-05
 1.26559419e-05
 1.26559419e-05
 1.26559419e-05
 1.26559419e-05
 1.26559419e-05
 1.26559419e-05
 1.22541954e-05
 1.22541954e-05
 1.19255887e-05
 1.19255887e-05
)
)
1
(
101
(
 2.12228586e-05
 2.12228586e-05
 2.12228586e-05
 2.12228586e-05
 2.12228586e-05
 2.12228586e-05
 2.12228586e-05
 2.12228586e-05
 2.12228586e-05
 2.12228586e-05
 2.12228586e-05
 2.12228586e-05
 2.12228586e-05
 2.12228586e-05
 2.12228586e-05
 2.12228586e-05
 2.12228586e-05
 2.12228586e-05
 2.12228586e-05
 2.12228586e-05
 2.12228586e-05
 2.12228586e-05
 2.12228586e-05
 2.12228586e-05
 2.12228586e-05
 2.12228586e-05
 2.12228586e-05
 2.12228586e-05
 2.12228586e-05
 2.12228586e-05
 2.12228586e-05
 2.12228586e-05
 2.12228586e-05
 2.12228586e-05
 2.12228586e-05
 2.12228586e-05
 2.12228586e-05
 2.12228586e-05
 2.12228586e-05
 2.12228586e-05
 2.12228586e-05
 2.12228586e-05
 2.12228586e-05
 2.12228586e-05
 2.07019205e-05
 1.86938941e-05
 1.86938941e-05
 1.86938941e-05
 1.86938941e-05
 1.86938941e-05
 1.86938941e-05
 1.71060088e-05
 1.71060088e-05
 1.71060088e-05
 1.71060088e-05
 1.71060088e-05
 1.71060088e-05
 1.71060088e-05
 1.71060088e-05
 1.71060088e-05
 1.71060088e-05
 1.71060088e-05
 1.71060088e-05
 1.71060088e-05
 1.71060088e-05
 1.71060088e-05
 1.71060088e-05
 1.58597140e-05
 1.58597140e-05
 1.58597140e-05
 1.58597140e-05
 1.58597140e-05
 1.58597140e-05
 1.58597140e-05
 1.58597140e-05
 1.58597140e-05
 1.58597140e-05
 1.58597140e-05
 1.58597140e-05
 1.49607977e-05
 1.41891813e-05
 1.41891813e-05
 1.41891813e-05
 1.41891813e-05
 1.41891813e-05
 1.41891813e-05
 1.34220678e-05
 1.34220678e-05
 1.34220678e-05
 1.34220678e-05
 1.34220678e-05
 1.34220678e-05
 1.34220678e-05
 1.26559419e-05
 1.26559419e-05
 1.26559419e-05
 1.26559419e-05
 1.26559419e-05
 1.22541954e-05
 1.19697709e-05
 1.19697709e-05
)
)
1
(
101
(
 2.21267173e-05
 2.21267173e-05
 2.21267173e-05
 2.21267173e-05
 2.21267173e-05
 2.21267173e-05
 2.21267173e-05
 2.21267173e-05
 2.21267173e-05
 2.21267173e-05
 2.21267173e-05
 2.21267173e-05
 2.21267173e-05
 2.21267173e-05
 2.21267173e-05
 2.21267173e-05
 2.21267173e-05
 2.21267173e-05
 2.21267173e-05
 2.21267173e-05
 2.21267173e-05
 2.21267173e-05
 2.21267173e-05
 2.21267173e-05
 2.21267173e-05
 2.21267173e-05
 2.21267173e-05
 2.21267173e-05
 2.21267173e-05
 2.21267173e-05
 2.21267173e-05
 2.21267173e-05
 2.21267173e-05
 2.21267173e-05
 2.21267173e-05
 2.21267173e-05
 2.21267173e-05
 2.21267173e-05
 2.21267173e-05
 2.21267173e-05
 2.21267173e-05
 2.21267173e-05
 2.21267173e-05
 2.21267173e-05
 2.07019205e-05
 2.07019205e-05
 2.07019205e-05
 1.86938941e-05
 1.86938941e-05
 1.86938941e-05
 1.86938941e-05
 1.86938941e-05
 1.86938941e-05
 1.71060088e-05
 1.71060088e-05
 1.71060088e-05
 1.71060088e-05
 1.71060088e-05
 1.71060088e-05
 1.71060088e-05
 1.71060088e-05
 1.71060088e-05
 1.71060088e-05
 1.71060088e-05
 1.71060088e-05
 1.71060088e-05
 1.71060088e-05
 1.71060088e-05
 1.58597140e-05
 1.58597140e-05
 1.58597140e-05
 1.58597140e-05
 1.58597140e-05
 1.58597140e-05
 1.58597140e-05
 1.58597140e-05
 1.58597140e-05
 1.58597140e-05
 1.58597140e-05
 1.58597140e-05
 1.49607977e-05
 1.41891813e-05
 1.41891813e-05
 1.41891813e-05
 1.41891813e-05
 1.41891813e-05
 1.41891813e-05
 1.41891813e-05
 1.34220678e-05
 1.34220678e-05
 1.34220678e-05
 1.34220678e-05
 1.34220678e-05
 1.34220678e-05
 1.29843607e-05
 1.26559419e-05
 1.26559419e-05
 1.26559419e-05
 1.23704346e-05
 1.23704346e-05
 1.19697709e-05
)
)
1
(
101
(
 2.29546780e-05
 2.29546780e-05
 2.29546780e-05
 2.29546780e-05
 2.29546780e-05
 2.29546780e-05
 2.29546780e-05
 2.29546780e-05
 2.29546780e-05
 2.29546780e-05
 2.29546780e-05
 2.29546780e-05
 2.29546780e-05
 2.29546780e-05
 2.29546780e-05
 2.29546780e-05
 2.29546780e-05
 2.29546780e-05
 2.29546780e-05
 2.29546780e-05
 2.29546780e-05
 2.29546780e-05
 2.29546780e-05
 2.29546780e-05
 2.29546780e-05
 2.29546780e-05
 2.29546780e-05
 2.29546780e-05
 2.29546780e-05
 2.29546780e-05
 2.29546780e-05
 2.29546780e-05
 2.29546780e-05
 2.29546780e-05
 2.29546780e-05
 2.29546780e-05
 2.29546780e-05
 2.29546780e-05
 2.29546780e-05
 2.29546780e-05
 2.29546780e-05
 2.29546780e-05
 3.04078059e-05
 2.07019205e-05
 2.07019205e-05
 2.07019205e-05
 2.07019205e-05
 2.07019205e-05
 1.86938941e-05
 1.86938941e-05
 1.86938941e-05
 1.86938941e-05
 1.86938941e-05
 1.86938941e-05
 1.71060088e-05
 1.71060088e-05
 1.71060088e-05
 1.71060088e-05
 1.71060088e-05
 1.71060088e-05
 1.71060088e-05
 1.71060088e-05
 1.71060088e-05
 1.71060088e-05
 1.71060088e-05
 1.71060088e-05
 1.71060088e-05
 1.71060088e-05
 1.71060088e-05
 1.71060088e-05
 1.58597140e-05
 1.58597140e-05
 1.58597140e-05
 1.58597140e-05
 1.58597140e-05
 1.58597140e-05
 1.58597140e-05
 1.58597140e-05
 1.58597140e-05
 1.58597140e-05
 1.58597140e-05
 1.49607977e-05
 1.49607977e-05
 1.41891813e-05
 1.41891813e-05
 1.41891813e-05
 1.41891813e-05
 1.41891813e-05
 1.41891813e-05
 1.34220678e-05
 1.34220678e-05
 1.34220678e-05
 1.34220678e-05
 1.34220678e-05
 1.34220678e-05
 1.29843607e-05
 1.29843607e-05
 1.26555672e-05
 1.26555672e-05
 1.23704346e-05
 1.23704346e-05
)
)
1
(
101
(
 2.37735916e-05
 2.37735916e-05
 2.37735916e-05
 2.37735916e-05
 2.37735916e-05
 2.37735916e-05
 2.37735916e-05
 2.37735916e-05
 2.37735916e-05
 2.37735916e-05
 2.37735916e-05
 2.37735916e-05
 2.37735916e-05
 2.37735916e-05
 2.37735916e-05
 2.37735916e-05
 2.37735916e-05
 2.37735916e-05
 2.37735916e-05
 2.37735916e-05
 2.37735916e-05
 2.37735916e-05
 2.37735916e-05
 2.37735916e-05
 2.37735916e-05
 2.37735916e-05
 2.37735916e-05
 2.37735916e-05
 2.37735916e-05
 2.37735916e-05
 2.37735916e-05
 2.37735916e-05
 2.37735916e-05
 3.04078059e-05
 3.04078059e-05
 3.04078059e-05
 3.04078059e-05
 3.04078059e-05
 3.04078059e-05
 3.04078059e-05
 3.04078059e-05
 3.04078059e-05
 3.04078059e-05
 2.07019205e-05
 2.07019205e-05
 2.07019205e-05
 2.07019205e-05
 2.07019205e-05
 2.07019205e-05
 1.86938941e-05
 1.86938941e-05
 1.86938941e-05
 1.86938941e-05
 1.86938941e-05
 1.86938941e-05
 1.86938941e-05
 1.71060088e-05
 1.71060088e-05
 1.71060088e-05
 1.71060088e-05
 1.71060088e-05
 1.71060088e-05
 1.71060088e-05
 1.71060088e-05
 1.71060088e-05
 1.71060088e-05
 1.71060088e-05
 1.71060088e-05
 1.71060088e-05
 1.71060088e-05
 1.71060088e-05
 1.58597140e-05
 1.58597140e-05
 1.58597140e-05
 1.58597140e-05
 1.58597140e-05
 1.58597140e-05
 1.58597140e-05
 1.58597140e-05
 1.58597140e-05
 1.58597140e-05
 1.58597140e-05
 1.49607977e-05
 1.49607977e-05
 1.41891813e-05
 1.41891813e-05
 1.41891813e-05
 1.41891813e-05
 1.41891813e-05
 1.41891813e-05
 1.41891813e-05
 1.34220678e-05
 1.34220678e-05
 1.34220678e-05
 1.34220678e-05
 1.34220678e-05
 1.29843607e-05
 1.29843607e-05
 1.26555672e-05
 1.26555672e-05
 1.23704346e-05
)
)
1
(
101
(
 2.46294083e-05
 2.46294083e-05
 2.46294083e-05
 2.46294083e-05
 2.46294083e-05
 2.46294083e-05
 2.46294083e-05
 2.46294083e-05
 2.46294083e-05
 2.46294083e-05
 2.46294083e-05
 2.46294083e-05
 2.46294083e-05
 2.46294083e-05
 2.46294083e-05
 2.46294083e-05
 2.46294083e-05
 2.46294083e-05
 2.46294083e-05
 2.46294083e-05
 2.46294083e-05
 2.46294083e-05
 2.46294083e-05
 2.46294083e-05
 2.46294083e-05
 2.46294083e-05
 3.04078059e-05
 3.04078059e-05
 3.04078059e-05
 3.04078059e-05
 3.04078059e-05
 3.04078059e-05
 3.04078059e-05
 3.04078059e-05
 3.04078059e-05
 3.04078059e-05
 3.04078059e-05
 3.04078059e-05
 3.04078059e-05
 3.04078059e-05
 3.04078059e-05
 3.04078059e-05
 3.04078059e-05
 2.07019205e-05
 2.07019205e-05
 2.07019205e-05
 2.07019205e-05
 2.07019205e-05
 2.07019205e-05
 2.07019205e-05
 1.86938941e-05
 1.86938941e-05
 1.86938941e-05
 1.86938941e-05
 1.86938941e-05
 1.86938941e-05
 1.86938941e-05
 1.71060088e-05
 1.71060088e-05
 1.71060088e-05
 1.71060088e-05
 1.71060088e-05
 1.71060088e-05
 1.71060088e-05
 1.71060088e-05
 1.71060088e-05
 1.71060088e-05
 1.71060088e-05
 1.71060088e-05
 1.71060088e-05
 1.71060088e-05
 1.71060088e-05
 1.58597140e-05
 1.58597140e-05
 1.58597140e-05
 1.58597140e-05
 1.58597140e-05
 1.58597140e-05
 1.58597140e-05
 1.58597140e-05
 1.58597140e-05
 1.58597140e-05
 1.58597140e-05
 1.49607977e-05
 1.49607977e-05
 1.49607977e-05
 1.41891813e-05
 1.41891813e-05
 1.41891813e-05
 1.41891813e-05
 1.41891813e-05
 1.41891813e-05
 1.38446200e-05
 1.34220678e-05
 1.34220678e-05
 1.34220678e-05
 1.29531150e-05
 1.29531150e-05
 1.29531150e-05
 1.26555672e-05
 1.26555672e-05
)
)
1
(
101
(
 2.54648329e-05
 2.54648329e-05
 2.54648329e-05
 2.54648329e-05
 2.54648329e-05
 2.54648329e-05
 2.54648329e-05
 2.54648329e-05
 2.54648329e-05
 2.54648329e-05
 2.54648329e-05
 2.54648329e-05
 2.54648329e-05
 2.54648329e-05
 2.54648329e-05
 2.54648329e-05
 2.54648329e-05
 2.54648329e-05
 2.54648329e-05
 3.04078059e-05
 3.04078059e-05
 3.04078059e-05
 3.04078059e-05
 3.04078059e-05
 3.04078059e-05
 3.04078059e-05
 3.04078059e-05
 3.04078059e-05
 3.04078059e-05
 3.04078059e-05
 3.04078059e-05
 3.04078059e-05
 3.04078059e-05
 3.04078059e-05
 3.04078059e-05
 3.04078059e-05
 3.04078059e-05
 3.04078059e-05
 3.04078059e-05
 3.04078059e-05
 3.04078059e-05
 3.04078059e-05
 2.07019205e-05
 2.07019205e-05
 2.07019205e-05
 2.07019205e-05
 2.07019205e-05
 2.07019205e-05
 2.07019205e-05
 2.07019205e-05
 2.07019205e-05
 1.86938941e-05
 1.86938941e-05
 1.86938941e-05
 1.86938941e-05
 1.86938941e-05
 1.86938941e-05
 1.86938941e-05
 1.86938941e-05
 1.71060088e-05
 1.71060088e-05
 1.71060088e-05
 1.71060088e-05
 1.71060088e-05
 1.71060088e-05
 1.71060088e-05
 1.71060088e-05
 1.71060088e-05
 1.71060088e-05
 1.71060088e-05
 1.71060088e-05
 1.71060088e-05
 1.71060088e-05
 1.58597140e-05
 1.58597140e-05
 1.58597140e-05
 1.58597140e-05
 1.58597140e-05
 1.58597140e-05
 1.58597140e-05
 1.58597140e-05
 1.58597140e-05
 1.58597140e-05
 1.58597140e-05
 1.49607977e-05
 1.49607977e-05
 1.49607977e-05
 1.41891813e-05
 1.41891813e-05
 1.41891813e-05
 1.41891813e-05
 1.41891813e-05
 1.41891813e-05
 1.38446200e-05
 1.38446200e-05
 1.34387363e-05
 1.34387363e-05
 1.29531150e-05
 1.29531150e-05
 1.29531150e-05
 1.29531150e-05
)
)
1
(
101
(
 2.62709584e-05
 2.62709584e-05
 2.62709584e-05
 2.62709584e-05
 2.62709584e-05
 2.62709584e-05
 2.62709584e-05
 2.62709584e-05
 2.62709584e-05
 2.62709584e-05
 2.62709584e-05
 2.62709584e-05
 2.62709584e-05
 2.62709584e-05
 3.04078059e-05
 3.04078059e-05
 3.04078059e-05
 3.04078059e-05
 3.04078059e-05
 3.04078059e-05
 3.04078059e-05
 3.04078059e-05
 3.04078059e-05
 3.04078059e-05
 3.04078059e-05
 3.04078059e-05
 3.04078059e-05
 3.04078059e-05
 3.04078059e-05
 3.04078059e-05
 3.04078059e-05
 3.04078059e-05
 3.04078059e-05
 3.04078059e-05
 3.04078059e-05
 3.04078059e-05
 3.04078059e-05
 3.04078059e-05
 3.04078059e-05
 3.04078059e-05
 3.04078059e-05
 3.04078059e-05
 2.07019205e-05
 2.07019205e-05
 2.07019205e-05
 2.07019205e-05
 2.07019205e-05
 2.07019205e-05
 2.07019205e-05
 2.07019205e-05
 2.07019205e-05
 2.07019205e-05
 1.86938941e-05
 1.86938941e-05
 1.86938941e-05
 1.86938941e-05
 1.86938941e-05
 1.86938941e-05
 1.86938941e-05
 1.86938941e-05
 1.71060088e-05
 1.71060088e-05
 1.71060088e-05
 1.71060088e-05
 1.71060088e-05
 1.71060088e-05
 1.71060088e-05
 1.71060088e-05
 1.71060088e-05
 1.71060088e-05
 1.71060088e-05
 1.71060088e-05
 1.71060088e-05
 1.71060088e-05
 1.71060088e-05
 1.58597140e-05
 1.58597140e-05
 1.58597140e-05
 1.58597140e-05
 1.58597140e-05
 1.58597140e-05
 1.58597140e-05
 1.58597140e-05
 1.58597140e-05
 1.58597140e-05
 1.49607977e-05
 1.49607977e-05
 1.49607977e-05
 1.49607977e-05
 1.41891813e-05
 1.41891813e-05
 1.41891813e-05
 1.41891813e-05
 1.41891813e-05
 1.38446200e-05
 1.38446200e-05
 1.34387363e-05
 1.34387363e-05
 1.29531150e-05
 1.29531150e-05
 1.29531150e-05
)
)
1
(
101
(
 2.71038730e-05
 2.71038730e-05
 2.71038730e-05
 2.71038730e-05
 2.71038730e-05
 2.71038730e-05
 2.71038730e-05
 2.71038730e-05
 2.71038730e-05
 3.04078059e-05
 3.04078059e-05
 3.04078059e-05
 3.04078059e-05
 3.04078059e-05
 3.04078059e-05
 3.04078059e-05
 3.04078059e-05
 3.04078059e-05
 3.04078059e-05
 3.04078059e-05
 3.04078059e-05
 3.04078059e-05
 3.04078059e-05
 3.04078059e-05
 3.04078059e-05
 3.04078059e-05
 3.04078059e-05
 3.04078059e-05
 3.04078059e-05
 3.04078059e-05
 3.04078059e-05
 3.04078059e-05
 3.04078059e-05
 3.04078059e-05
 3.04078059e-05
 3.04078059e-05
 3.04078059e-05
 3.04078059e-05
 3.04078059e-05
 3.04078059e-05
 3.04078059e-05
 3.04078059e-05
 2.07019205e-05
 2.07019205e-05
 2.07019205e-05
 2.07019205e-05
 2.07019205e-05
 2.07019205e-05
 2.07019205e-05
 2.07019205e-05
 2.07019205e-05
 2.07019205e-05
 2.07019205e-05
 2.07019205e-05
 1.86938941e-05
 1.86938941e-05
 1.86938941e-05
 1.86938941e-05
 1.86938941e-05
 1.86938941e-05
 1.86938941e-05
 1.86938941e-05
 1.71060088e-05
 1.71060088e-05
 1.71060088e-05
 1.71060088e-05
 1.71060088e-05
 1.71060088e-05
 1.71060088e-05
 1.71060088e-05
 1.71060088e-05
 1.71060088e-05
 1.71060088e-05
 1.71060088e-05
 1.71060088e-05
 1.71060088e-05
 1.58597140e-05
 1.58597140e-05
 1.58597140e-05
 1.58597140e-05
 1.58597140e-05
 1.58597140e-05
 1.58597140e-05
 1.58597140e-05
 1.58597140e-05
 1.58597140e-05
 1.49607977e-05
 1.49607977e-05
 1.49607977e-05
 1.49607977e-05
 1.45894837e-05
 1.41891813e-05
 1.41891813e-05
 1.41891813e-05
 1.41891813e-05
 1.38446200e-05
 1.38446200e-05
 1.34387363e-05
 1.34387363e-05
 1.29531150e-05
 1.29531150e-05
)
)
1
(
101
(
 2.78639779e-05
 2.78639779e-05
 2.78639779e-05
 2.78639779e-05
 2.78639779e-05
 2.78639779e-05
 3.04078059e-05
 3.04078059e-05
 3.04078059e-05
 3.04078059e-05
 3.04078059e-05
 3.04078059e-05
 3.04078059e-05
 3.04078059e-05
 3.04078059e-05
 3.04078059e-05
 3.04078059e-05
 3.04078059e-05
 3.04078059e-05
 3.04078059e-05
 3.04078059e-05
 3.04078059e-05
 3.04078059e-05
 3.04078059e-05
 3.04078059e-05
 3.04078059e-05
 3.04078059e-05
 3.04078059e-05
 3.04078059e-05
 3.04078059e-05
 3.04078059e-05
 3.04078059e-05
 3.04078059e-05
 3.04078059e-05
 3.04078059e-05
 3.04078059e-05
 3.04078059e-05
 3.04078059e-05
 3.04078059e-05
 3.04078059e-05
 3.04078059e-05
 3.04078059e-05
 2.07019205e-05
 2.07019205e-05
 2.07019205e-05
 2.07019205e-05
 2.07019205e-05
 2.07019205e-05
 2.07019205e-05
 2.07019205e-05
 2.07019205e-05
 2.07019205e-05
 2.07019205e-05
 2.07019205e-05
 2.07019205e-05
 1.86938941e-05
 1.86938941e-05
 1.86938941e-05
 1.86938941e-05
 1.86938941e-05
 1.86938941e-05
 1.86938941e-05
 1.86938941e-05
 1.71060088e-05
 1.71060088e-05
 1.71060088e-05
 1.71060088e-05
 1.71060088e-05
 1.71060088e-05
 1.71060088e-05
 1.71060088e-05
 1.71060088e-05
 1.71060088e-05
 1.71060088e-05
 1.71060088e-05
 1.71060088e-05
 1.71060088e-05
 1.58597140e-05
 1.58597140e-05
 1.58597140e-05
 1.58597140e-05
 1.58597140e-05
 1.58597140e-05
 1.58597140e-05
 1.58597140e-05
 1.58597140e-05
 1.58597140e-05
 1.49607977e-05
 1.49607977e-05
 1.49607977e-05
 1.49607977e-05
 1.45894837e-05
 1.45894837e-05
 1.39630759e-05
 1.39630759e-05
 1.39630759e-05
 1.38446200e-05
 1.38446200e-05
 1.34387363e-05
 1.34387363e-05
 1.29531150e-05
)
)
1
(
101
(
 2.87254760e-05
 2.87254760e-05
 2.87254760e-05
 3.04078059e-05
 3.04078059e-05
 3.04078059e-05
 3.04078059e-05
 3.04078059e-05
 3.04078059e-05
 3.04078059e-05
 3.04078059e-05
 3.04078059e-05
 3.04078059e-05
 3.04078059e-05
 3.04078059e-05
 3.04078059e-05
 3.04078059e-05
 3.04078059e-05
 3.04078059e-05
 3.04078059e-05
 3.04078059e-05
 3.04078059e-05
 3.04078059e-05
 3.04078059e-05
 3.04078059e-05
 3.04078059e-05
 3.04078059e-05
 3.04078059e-05
 3.04078059e-05
 3.04078059e-05
 3.04078059e-05
 3.04078059e-05
 3.04078059e-05
 3.04078059e-05
 3.04078059e-05
 3.04078059e-05
 3.04078059e-05
 3.04078059e-05
 3.04078059e-05
 3.04078059e-05
 3.04078059e-05
 2.27164889e-05
 2.07019205e-05
 2.07019205e-05
 2.07019205e-05
 2.07019205e-05
 2.07019205e-05
 2.07019205e-05
 2.07019205e-05
 2.07019205e-05
 2.07019205e-05
 2.07019205e-05
 2.07019205e-05
 2.07019205e-05
 2.07019205e-05
 2.07019205e-05
 1.86938941e-05
 1.86938941e-05
 1.86938941e-05
 1.86938941e-05
 1.86938941e-05
 1.86938941e-05
 1.86938941e-05
 1.86938941e-05
 1.86938941e-05
 1.71060088e-05
 1.71060088e-05
 1.71060088e-05
 1.71060088e-05
 1.71060088e-05
 1.71060088e-05
 1.71060088e-05
 1.71060088e-05
 1.71060088e-05
 1.71060088e-05
 1.71060088e-05
 1.71060088e-05
 1.71060088e-05
 1.58597140e-05
 1.58597140e-05
 1.58597140e-05
 1.58597140e-05
 1.58597140e-05
 1.58597140e-05
 1.58597140e-05
 1.58597140e-05
 1.58597140e-05
 1.58597140e-05
 1.49607977e-05
 1.49607977e-05
 1.49607977e-05
 1.49607977e-05
 1.45894837e-05
 1.45894837e-05
 1.39630759e-05
 1.39630759e-05
 1.39630759e-05
 1.39630759e-05
 1.38446200e-05
 1.34387363e-05
 1.34387363e-05
)
)
1
(
101
(
 2.93318927e-05
 2.93318927e-05
 3.04078059e-05
 3.04078059e-05
 3.04078059e-05
 3.04078059e-05
 3.04078059e-05
 3.04078059e-05
 3.04078059e-05
 3.04078059e-05
 3.04078059e-05
 3.04078059e-05
 3.04078059e-05
 3.04078059e-05
 3.04078059e-05
 3.04078059e-05
 3.04078059e-05
 3.04078059e-05
 3.04078059e-05
 3.04078059e-05
 3.04078059e-05
 3.04078059e-05
 3.04078059e-05
 3.04078059e-05
 3.04078059e-05
 3.04078059e-05
 3.04078059e-05
 3.04078059e-05
 3.04078059e-05
 3.04078059e-05
 3.04078059e-05
 3.04078059e-05
 3.04078059e-05
 3.04078059e-05
 3.04078059e-05
 3.04078059e-05
 3.04078059e-05
 3.04078059e-05
 3.04078059e-05
 3.04078059e-05
 3.04078059e-05
 2.27164889e-05
 2.27164889e-05
 2.07019205e-05
 2.07019205e-05
 2.07019205e-05
 2.07019205e-05
 2.07019205e-05
 2.07019205e-05
 2.07019205e-05
 2.07019205e-05
 2.07019205e-05
 2.07019205e-05
 2.07019205e-05
 2.07019205e-05
 2.07019205e-05
 2.07019205e-05
 1.86938941e-05
 1.86938941e-05
 1.86938941e-05
 1.86938941e-05
 1.86938941e-05
 1.86938941e-05
 1.86938941e-05
 1.86938941e-05
 1.86938941e-05
 1.71060088e-05
 1.71060088e-05
 1.71060088e-05
 1.71060088e-05
 1.71060088e-05
 1.71060088e-05
 1.71060088e-05
 1.71060088e-05
 1.71060088e-05
 1.71060088e-05
 1.71060088e-05
 1.71060088e-05
 1.71060088e-05
 1.71060088e-05
 1.58597140e-05
 1.58597140e-05
 1.58597140e-05
 1.58597140e-05
 1.58597140e-05
 1.58597140e-05
 1.58597140e-05
 1.58597140e-05
 1.53535673e-05
 1.49607977e-05
 1.49607977e-05
 1.49607977e-05
 1.41669230e-05
 1.41669230e-05
 1.41669230e-05
 1.39630759e-05
 1.39630759e-05
 1.39630759e-05
 1.39630759e-05
 1.39630759e-05
 1.34387363e-05
)
)
1
(
101
(
 2.98819297e-05
 3.04078059e-05
 3.04078059e-05
 3.04078059e-05
 3.04078059e-05
 3.04078059e-05
 3.04078059e-05
 3.04078059e-05
 3.04078059e-05
 3.04078059e-05
 3.04078059e-05
 3.04078059e-05
 3.04078059e-05
 3.04078059e-05
 3.04078059e-05
 3.04078059e-05
 3.04078059e-05
 3.04078059e-05
 3.04078059e-05
 3.04078059e-05
 3.04078059e-05
 3.04078059e-05
 3.04078059e-05
 3.04078059e-05
 3.04078059e-05
 3.04078059e-05
 3.04078059e-05
 3.04078059e-05
 3.04078059e-05
 3.04078059e-05
 3.04078059e-05
 3.04078059e-05
 3.04078059e-05
 3.04078059e-05
 3.04078059e-05
 3.04078059e-05
 3.04078059e-05
 3.04078059e-05
 3.04078059e-05
 3.04078059e-05
 2.27164889e-05
 2.27164889e-05
 2.27164889e-05
 2.27164889e-05
 2.07019205e-05
 2.07019205e-05
 2.07019205e-05
 2.07019205e-05
 2.07019205e-05
 2.07019205e-05
 2.07019205e-05
 2.07019205e-05
 2.07019205e-05
 2.07019205e-05
 2.07019205e-05
 2.07019205e-05
 2.07019205e-05
 2.07019205e-05
 1.86938941e-05
 1.86938941e-05
 1.86938941e-05
 1.86938941e-05
 1.86938941e-05
 1.86938941e-05
 1.86938941e-05
 1.86938941e-05
 1.86938941e-05
 1.86938941e-05
 1.71060088e-05
 1.71060088e-05
 1.71060088e-05
 1.71060088e-05
 1.71060088e-05
 1.71060088e-05
 1.71060088e-05
 1.71060088e-05
 1.71060088e-05
 1.71060088e-05
 1.71060088e-05
 1.71060088e-05
 1.71060088e-05
 1.62880326e-05
 1.58597140e-05
 1.58597140e-05
 1.58597140e-05
 1.58597140e-05
 1.58597140e-05
 1.58597140e-05
 1.58597140e-05
 1.53535673e-05
 1.53535673e-05
 1.50224814e-05
 1.50224814e-05
 1.41669230e-05
 1.41669230e-05
 1.41669230e-05
 1.41669230e-05
 1.39630759e-05
 1.39630759e-05
 1.39630759e-05
 1.39630759e-05
)
)
1
(
101
(
 2.98819297e-05
 3.08742611e-05
 3.08742611e-05
 3.08742611e-05
 3.08742611e-05
 3.08742611e-05
 3.08742611e-05
 3.08742611e-05
 3.08742611e-05
 3.08742611e-05
 3.08742611e-05
 3.08742611e-05
 3.08742611e-05
 3.08742611e-05
 3.08742611e-05
 3.08742611e-05
 3.08742611e-05
 3.08742611e-05
 3.08742611e-05
 3.08742611e-05
 3.08742611e-05
 3.08742611e-05
 3.08742611e-05
 3.08742611e-05
 3.08742611e-05
 3.08742611e-05
 3.08742611e-05
 3.08742611e-05
 3.08742611e-05
 3.08742611e-05
 3.08742611e-05
 3.08742611e-05
 3.08742611e-05
 3.08742611e-05
 3.08742611e-05
 3.08742611e-05
 3.08742611e-05
 3.08742611e-05
 3.08742611e-05
 3.08742611e-05
 2.27164889e-05
 2.27164889e-05
 2.27164889e-05
 2.27164889e-05
 2.27164889e-05
 2.07019205e-05
 2.07019205e-05
 2.07019205e-05
 2.07019205e-05
 2.07019205e-05
 2.07019205e-05
 2.07019205e-05
 2.07019205e-05
 2.07019205e-05
 2.07019205e-05
 2.07019205e-05
 2.07019205e-05
 2.07019205e-05
 2.07019205e-05
 1.86938941e-05
 1.86938941e-05
 1.86938941e-05
 1.86938941e-05
 1.86938941e-05
 1.86938941e-05
 1.86938941e-05
 1.86938941e-05
 1.86938941e-05
 1.86938941e-05
 1.71060088e-05
 1.71060088e-05
 1.71060088e-05
 1.71060088e-05
 1.71060088e-05
 1.71060088e-05
 1.71060088e-05
 1.71060088e-05
 1.71060088e-05
 1.71060088e-05
 1.71060088e-05
 1.71060088e-05
 1.71060088e-05
 1.62880326e-05
 1.62880326e-05
 1.58597140e-05
 1.58597140e-05
 1.58597140e-05
 1.58597140e-05
 1.58597140e-05
 1.53535673e-05
 1.53535673e-05
 1.53535673e-05
 1.50224814e-05
 1.50224814e-05
 1.41669230e-05
 1.41669230e-05
 1.41669230e-05
 1.41669230e-05
 1.41669230e-05
 1.39630759e-05
 1.39630759e-05
)
)
1
(
101
(
 3.16824833e-05
 3.16824833e-05
 3.16824833e-05
 3.16824833e-05
 3.16824833e-05
 3.16824833e-05
 3.16824833e-05
 3.16824833e-05
 3.16824833e-05
 3.16824833e-05
 3.16824833e-05
 3.16824833e-05
 3.16824833e-05
 3.16824833e-05
 3.16824833e-05
 3.16824833e-05
 3.16824833e-05
 3.16824833e-05
 3.16824833e-05
 3.16824833e-05
 3.16824833e-05
 3.16824833e-05
 3.16824833e-05
 3.16824833e-05
 3.16824833e-05
 3.16824833e-05
 3.16824833e-05
 3.16824833e-05
 3.16824833e-05
 3.16824833e-05
 3.16824833e-05
 3.16824833e-05
 3.16824833e-05
 3.16824833e-05
 3.16824833e-05
 3.16824833e-05
 3.16824833e-05
 3.16824833e-05
 3.16824833e-05
 3.16824833e-05
 2.27164889e-05
 2.27164889e-05
 2.27164889e-05
 2.27164889e-05
 2.27164889e-05
 2.27164889e-05
 2.07019205e-05
 2.07019205e-05
 2.07019205e-05
 2.07019205e-05
 2.07019205e-05
 2.07019205e-05
 2.07019205e-05
 2.07019205e-05
 2.07019205e-05
 2.07019205e-05
 2.07019205e-05
 2.07019205e-05
 2.07019205e-05
 2.07019205e-05
 2.07019205e-05
 1.86938941e-05
 1.86938941e-05
 1.86938941e-05
 1.86938941e-05
 1.86938941e-05
 1.86938941e-05
 1.86938941e-05
 1.86938941e-05
 1.86938941e-05
 1.86938941e-05
 1.71060088e-05
 1.71060088e-05
 1.71060088e-05
 1.71060088e-05
 1.71060088e-05
 1.71060088e-05
 1.71060088e-05
 1.71060088e-05
 1.71060088e-05
 1.71060088e-05
 1.71060088e-05
 1.71060088e-05
 1.62880326e-05
 1.62880326e-05
 1.62880326e-05
 1.58597140e-05
 1.58597140e-05
 1.58597140e-05
 1.58597140e-05
 1.53535673e-05
 1.53535673e-05
 1.53535673e-05
 1.50224814e-05
 1.50224814e-05
 1.41669230e-05
 1.41669230e-05
 1.41669230e-05
 1.41669230e-05
 1.41669230e-05
 1.41669230e-05
)
)
1
(
101
(
 3.24124146e-05
 3.24124146e-05
 3.24124146e-05
 3.24124146e-05
 3.24124146e-05
 3.24124146e-05
 3.24124146e-05
 3.24124146e-05
 3.24124146e-05
 3.24124146e-05
 3.24124146e-05
 3.24124146e-05
 3.24124146e-05
 3.24124146e-05
 3.24124146e-05
 3.24124146e-05
 3.24124146e-05
 3.24124146e-05
 3.24124146e-05
 3.24124146e-05
 3.24124146e-05
 3.24124146e-05
 3.24124146e-05
 3.24124146e-05
 3.24124146e-05
 3.24124146e-05
 3.24124146e-05
 3.24124146e-05
 3.24124146e-05
 3.24124146e-05
 3.24124146e-05
 3.24124146e-05
 3.24124146e-05
 3.24124146e-05
 3.24124146e-05
 3.24124146e-05
 3.24124146e-05
 3.24124146e-05
 3.24124146e-05
 2.27164889e-05
 2.27164889e-05
 2.27164889e-05
 2.27164889e-05
 2.27164889e-05
 2.27164889e-05
 2.27164889e-05
 2.27164889e-05
 2.27164889e-05
 2.07019205e-05
 2.07019205e-05
 2.07019205e-05
 2.07019205e-05
 2.07019205e-05
 2.07019205e-05
 2.07019205e-05
 2.07019205e-05
 2.07019205e-05
 2.07019205e-05
 2.07019205e-05
 2.07019205e-05
 2.07019205e-05
 2.07019205e-05
 1.86938941e-05
 1.86938941e-05
 1.86938941e-05
 1.86938941e-05
 1.86938941e-05
 1.86938941e-05
 1.86938941e-05
 1.86938941e-05
 1.86938941e-05
 1.86938941e-05
 1.71060088e-05
 1.71060088e-05
 1.71060088e-05
 1.71060088e-05
 1.71060088e-05
 1.71060088e-05
 1.71060088e-05
 1.71060088e-05
 1.71060088e-05
 1.71060088e-05
 1.71060088e-05
 1.71060088e-05
 1.62880326e-05
 1.62880326e-05
 1.62880326e-05
 1.62880326e-05
 1.59666217e-05
 1.59666217e-05
 1.59666217e-05
 1.53535673e-05
 1.53535673e-05
 1.53535673e-05
 1.50224814e-05
 1.50224814e-05
 1.41669230e-05