/*--------------------------------*- C++ -*----------------------------------*\
| =========                 |                                                 |
| \\      /  F ield        | OpenFOAM: The Open Source CFD Toolbox           |
|  \\    /   O peration    | Version:  7                                     |
|   \\  /    A nd          | Web:      http://www.OpenFOAM.com               |
|    \\/     M anipulation |                                                 |
\*---------------------------------------------------------------------------*/

FoamFile
{
    version     2.0;
    format      ascii;
    class       dictionary;
    object      psi_table;
}

dimensions      [0 -2 2 0 0 0 0];

psi_table
1
(
101
(
1
(
101
(
 1.15505122e-05
 1.15505122e-05
 1.15505122e-05
 1.15505122e-05
 1.15505122e-05
 1.15505122e-05
 1.15505122e-05
 1.15505122e-05
 1.15505122e-05
 1.15505122e-05
 1.15505122e-05
 1.15505122e-05
 1.15505122e-05
 1.15505122e-05
 1.15505122e-05
 1.15505122e-05
 1.15505122e-05
 1.15505122e-05
 1.15505122e-05
 1.15505122e-05
 1.15505122e-05
 1.15505122e-05
 1.15505122e-05
 1.15505122e-05
 1.15505122e-05
 1.15505122e-05
 1.15505122e-05
 1.15505122e-05
 1.15505122e-05
 1.15505122e-05
 1.15505122e-05
 1.15505122e-05
 1.15505122e-05
 1.15505122e-05
 1.15505122e-05
 1.15505122e-05
 1.15505122e-05
 1.15505122e-05
 1.15505122e-05
 1.15505122e-05
 1.15505122e-05
 1.15505122e-05
 1.15505122e-05
 1.15505122e-05
 1.15505122e-05
 4.03984899e-06
 4.03984899e-06
 4.39056035e-06
 4.39056035e-06
 4.39056035e-06
 4.39056035e-06
 4.39056035e-06
 4.39056035e-06
 4.39056035e-06
 4.39056035e-06
 4.39056035e-06
 4.39056035e-06
 4.39056035e-06
 4.39056035e-06
 4.39056035e-06
 4.39056035e-06
 4.39056035e-06
 4.39056035e-06
 4.69847002e-06
 4.69847002e-06
 4.69847002e-06
 4.69847002e-06
 4.69847002e-06
 4.69847002e-06
 4.69847002e-06
 4.69847002e-06
 4.69847002e-06
 4.69847002e-06
 4.69847002e-06
 4.69847002e-06
 5.18545377e-06
 5.18545377e-06
 5.18545377e-06
 5.18545377e-06
 5.18545377e-06
 5.18545377e-06
 5.18545377e-06
 5.47411128e-06
 5.47411128e-06
 5.47411128e-06
 5.47411128e-06
 5.47411128e-06
 5.47411128e-06
 5.80121544e-06
 5.80121544e-06
 5.80121544e-06
 5.80121544e-06
 5.80121544e-06
 5.80121544e-06
 5.80121544e-06
 6.24803307e-06
 6.24803307e-06
 6.24803307e-06
 6.24803307e-06
 6.24803307e-06
 6.42816128e-06
)
)
1
(
101
(
 1.09182293e-05
 1.09182293e-05
 1.09182293e-05
 1.09182293e-05
 1.09182293e-05
 1.09182293e-05
 1.09182293e-05
 1.09182293e-05
 1.09182293e-05
 1.09182293e-05
 1.09182293e-05
 1.09182293e-05
 1.09182293e-05
 1.09182293e-05
 1.09182293e-05
 1.09182293e-05
 1.09182293e-05
 1.09182293e-05
 1.09182293e-05
 1.09182293e-05
 1.09182293e-05
 1.09182293e-05
 1.09182293e-05
 1.09182293e-05
 1.09182293e-05
 1.09182293e-05
 1.09182293e-05
 1.09182293e-05
 1.09182293e-05
 1.09182293e-05
 1.09182293e-05
 1.09182293e-05
 1.09182293e-05
 1.09182293e-05
 1.09182293e-05
 1.09182293e-05
 1.09182293e-05
 1.09182293e-05
 1.09182293e-05
 1.09182293e-05
 1.09182293e-05
 1.09182293e-05
 1.09182293e-05
 1.09182293e-05
 1.09182293e-05
 4.03984899e-06
 4.03984899e-06
 4.03984899e-06
 4.39056035e-06
 4.39056035e-06
 4.39056035e-06
 4.39056035e-06
 4.39056035e-06
 4.39056035e-06
 4.39056035e-06
 4.39056035e-06
 4.39056035e-06
 4.39056035e-06
 4.39056035e-06
 4.39056035e-06
 4.39056035e-06
 4.39056035e-06
 4.39056035e-06
 4.39056035e-06
 4.39056035e-06
 4.69847002e-06
 4.69847002e-06
 4.69847002e-06
 4.69847002e-06
 4.69847002e-06
 4.69847002e-06
 4.69847002e-06
 4.69847002e-06
 4.69847002e-06
 4.69847002e-06
 4.69847002e-06
 4.69847002e-06
 5.18545377e-06
 5.18545377e-06
 5.18545377e-06
 5.18545377e-06
 5.18545377e-06
 5.18545377e-06
 5.47411128e-06
 5.47411128e-06
 5.47411128e-06
 5.47411128e-06
 5.47411128e-06
 5.47411128e-06
 5.47411128e-06
 5.80121544e-06
 5.80121544e-06
 5.80121544e-06
 5.80121544e-06
 5.80121544e-06
 5.80121544e-06
 5.98975942e-06
 6.24803307e-06
 6.24803307e-06
 6.24803307e-06
 6.32650672e-06
)
)
1
(
101
(
 1.02400822e-05
 1.02400822e-05
 1.02400822e-05
 1.02400822e-05
 1.02400822e-05
 1.02400822e-05
 1.02400822e-05
 1.02400822e-05
 1.02400822e-05
 1.02400822e-05
 1.02400822e-05
 1.02400822e-05
 1.02400822e-05
 1.02400822e-05
 1.02400822e-05
 1.02400822e-05
 1.02400822e-05
 1.02400822e-05
 1.02400822e-05
 1.02400822e-05
 1.02400822e-05
 1.02400822e-05
 1.02400822e-05
 1.02400822e-05
 1.02400822e-05
 1.02400822e-05
 1.02400822e-05
 1.02400822e-05
 1.02400822e-05
 1.02400822e-05
 1.02400822e-05
 1.02400822e-05
 1.02400822e-05
 1.02400822e-05
 1.02400822e-05
 1.02400822e-05
 1.02400822e-05
 1.02400822e-05
 1.02400822e-05
 1.02400822e-05
 1.02400822e-05
 1.02400822e-05
 1.02400822e-05
 1.02400822e-05
 4.03984899e-06
 4.03984899e-06
 4.03984899e-06
 4.03984899e-06
 4.03984899e-06
 4.03984899e-06
 4.39056035e-06
 4.39056035e-06
 4.39056035e-06
 4.39056035e-06
 4.39056035e-06
 4.39056035e-06
 4.39056035e-06
 4.39056035e-06
 4.39056035e-06
 4.39056035e-06
 4.39056035e-06
 4.39056035e-06
 4.39056035e-06
 4.39056035e-06
 4.39056035e-06
 4.39056035e-06
 4.69847002e-06
 4.69847002e-06
 4.69847002e-06
 4.69847002e-06
 4.69847002e-06
 4.69847002e-06
 4.69847002e-06
 4.69847002e-06
 4.69847002e-06
 4.69847002e-06
 4.69847002e-06
 4.69847002e-06
 5.18545377e-06
 5.18545377e-06
 5.18545377e-06
 5.18545377e-06
 5.18545377e-06
 5.18545377e-06
 5.18545377e-06
 5.47411128e-06
 5.47411128e-06
 5.47411128e-06
 5.47411128e-06
 5.47411128e-06
 5.47411128e-06
 5.80121544e-06
 5.80121544e-06
 5.80121544e-06
 5.80121544e-06
 5.80121544e-06
 5.80121544e-06
 5.98975942e-06
 5.98975942e-06
 6.15679196e-06
 6.15679196e-06
)
)
1
(
101
(
 9.64318609e-06
 9.64318609e-06
 9.64318609e-06
 9.64318609e-06
 9.64318609e-06
 9.64318609e-06
 9.64318609e-06
 9.64318609e-06
 9.64318609e-06
 9.64318609e-06
 9.64318609e-06
 9.64318609e-06
 9.64318609e-06
 9.64318609e-06
 9.64318609e-06
 9.64318609e-06
 9.64318609e-06
 9.64318609e-06
 9.64318609e-06
 9.64318609e-06
 9.64318609e-06
 9.64318609e-06
 9.64318609e-06
 9.64318609e-06
 9.64318609e-06
 9.64318609e-06
 9.64318609e-06
 9.64318609e-06
 9.64318609e-06
 9.64318609e-06
 9.64318609e-06
 9.64318609e-06
 9.64318609e-06
 9.64318609e-06
 9.64318609e-06
 9.64318609e-06
 9.64318609e-06
 9.64318609e-06
 9.64318609e-06
 9.64318609e-06
 9.64318609e-06
 9.64318609e-06
 9.64318609e-06
 9.64318609e-06
 3.71282538e-06
 4.03984899e-06
 4.03984899e-06
 4.03984899e-06
 4.03984899e-06
 4.03984899e-06
 4.03984899e-06
 4.39056035e-06
 4.39056035e-06
 4.39056035e-06
 4.39056035e-06
 4.39056035e-06
 4.39056035e-06
 4.39056035e-06
 4.39056035e-06
 4.39056035e-06
 4.39056035e-06
 4.39056035e-06
 4.39056035e-06
 4.39056035e-06
 4.39056035e-06
 4.39056035e-06
 4.39056035e-06
 4.69847002e-06
 4.69847002e-06
 4.69847002e-06
 4.69847002e-06
 4.69847002e-06
 4.69847002e-06
 4.69847002e-06
 4.69847002e-06
 4.69847002e-06
 4.69847002e-06
 4.69847002e-06
 4.69847002e-06
 4.93088208e-06
 5.18545377e-06
 5.18545377e-06
 5.18545377e-06
 5.18545377e-06
 5.18545377e-06
 5.18545377e-06
 5.47411128e-06
 5.47411128e-06
 5.47411128e-06
 5.47411128e-06
 5.47411128e-06
 5.47411128e-06
 5.47411128e-06
 5.80121544e-06
 5.80121544e-06
 5.80121544e-06
 5.80121544e-06
 5.80121544e-06
 5.98975942e-06
 6.13779118e-06
 6.13779118e-06
)
)
1
(
101
(
 9.08559153e-06
 9.08559153e-06
 9.08559153e-06
 9.08559153e-06
 9.08559153e-06
 9.08559153e-06
 9.08559153e-06
 9.08559153e-06
 9.08559153e-06
 9.08559153e-06
 9.08559153e-06
 9.08559153e-06
 9.08559153e-06
 9.08559153e-06
 9.08559153e-06
 9.08559153e-06
 9.08559153e-06
 9.08559153e-06
 9.08559153e-06
 9.08559153e-06
 9.08559153e-06
 9.08559153e-06
 9.08559153e-06
 9.08559153e-06
 9.08559153e-06
 9.08559153e-06
 9.08559153e-06
 9.08559153e-06
 9.08559153e-06
 9.08559153e-06
 9.08559153e-06
 9.08559153e-06
 9.08559153e-06
 9.08559153e-06
 9.08559153e-06
 9.08559153e-06
 9.08559153e-06
 9.08559153e-06
 9.08559153e-06
 9.08559153e-06
 9.08559153e-06
 9.08559153e-06
 9.08559153e-06
 9.08559153e-06
 3.71282538e-06
 3.71282538e-06
 3.71282538e-06
 4.03984899e-06
 4.03984899e-06
 4.03984899e-06
 4.03984899e-06
 4.03984899e-06
 4.03984899e-06
 4.39056035e-06
 4.39056035e-06
 4.39056035e-06
 4.39056035e-06
 4.39056035e-06
 4.39056035e-06
 4.39056035e-06
 4.39056035e-06
 4.39056035e-06
 4.39056035e-06
 4.39056035e-06
 4.39056035e-06
 4.39056035e-06
 4.39056035e-06
 4.39056035e-06
 4.69847002e-06
 4.69847002e-06
 4.69847002e-06
 4.69847002e-06
 4.69847002e-06
 4.69847002e-06
 4.69847002e-06
 4.69847002e-06
 4.69847002e-06
 4.69847002e-06
 4.69847002e-06
 4.69847002e-06
 4.93088208e-06
 5.18545377e-06
 5.18545377e-06
 5.18545377e-06
 5.18545377e-06
 5.18545377e-06
 5.18545377e-06
 5.18545377e-06
 5.47411128e-06
 5.47411128e-06
 5.47411128e-06
 5.47411128e-06
 5.47411128e-06
 5.47411128e-06
 5.65677735e-06
 5.80121544e-06
 5.80121544e-06
 5.80121544e-06
 5.93560934e-06
 5.93560934e-06
 6.13779118e-06
)
)
1
(
101
(
 8.61601376e-06
 8.61601376e-06
 8.61601376e-06
 8.61601376e-06
 8.61601376e-06
 8.61601376e-06
 8.61601376e-06
 8.61601376e-06
 8.61601376e-06
 8.61601376e-06
 8.61601376e-06
 8.61601376e-06
 8.61601376e-06
 8.61601376e-06
 8.61601376e-06
 8.61601376e-06
 8.61601376e-06
 8.61601376e-06
 8.61601376e-06
 8.61601376e-06
 8.61601376e-06
 8.61601376e-06
 8.61601376e-06
 8.61601376e-06
 8.61601376e-06
 8.61601376e-06
 8.61601376e-06
 8.61601376e-06
 8.61601376e-06
 8.61601376e-06
 8.61601376e-06
 8.61601376e-06
 8.61601376e-06
 8.61601376e-06
 8.61601376e-06
 8.61601376e-06
 8.61601376e-06
 8.61601376e-06
 8.61601376e-06
 8.61601376e-06
 8.61601376e-06
 8.61601376e-06
 5.66228352e-06
 3.71282538e-06
 3.71282538e-06
 3.71282538e-06
 3.71282538e-06
 3.71282538e-06
 4.03984899e-06
 4.03984899e-06
 4.03984899e-06
 4.03984899e-06
 4.03984899e-06
 4.03984899e-06
 4.39056035e-06
 4.39056035e-06
 4.39056035e-06
 4.39056035e-06
 4.39056035e-06
 4.39056035e-06
 4.39056035e-06
 4.39056035e-06
 4.39056035e-06
 4.39056035e-06
 4.39056035e-06
 4.39056035e-06
 4.39056035e-06
 4.39056035e-06
 4.39056035e-06
 4.39056035e-06
 4.69847002e-06
 4.69847002e-06
 4.69847002e-06
 4.69847002e-06
 4.69847002e-06
 4.69847002e-06
 4.69847002e-06
 4.69847002e-06
 4.69847002e-06
 4.69847002e-06
 4.69847002e-06
 4.93088208e-06
 4.93088208e-06
 5.18545377e-06
 5.18545377e-06
 5.18545377e-06
 5.18545377e-06
 5.18545377e-06
 5.18545377e-06
 5.47411128e-06
 5.47411128e-06
 5.47411128e-06
 5.47411128e-06
 5.47411128e-06
 5.47411128e-06
 5.65677735e-06
 5.65677735e-06
 5.80310787e-06
 5.80310787e-06
 5.93560934e-06
 5.93560934e-06
)
)
1
(
101
(
 8.18652391e-06
 8.18652391e-06
 8.18652391e-06
 8.18652391e-06
 8.18652391e-06
 8.18652391e-06
 8.18652391e-06
 8.18652391e-06
 8.18652391e-06
 8.18652391e-06
 8.18652391e-06
 8.18652391e-06
 8.18652391e-06
 8.18652391e-06
 8.18652391e-06
 8.18652391e-06
 8.18652391e-06
 8.18652391e-06
 8.18652391e-06
 8.18652391e-06
 8.18652391e-06
 8.18652391e-06
 8.18652391e-06
 8.18652391e-06
 8.18652391e-06
 8.18652391e-06
 8.18652391e-06
 8.18652391e-06
 8.18652391e-06
 8.18652391e-06
 8.18652391e-06
 8.18652391e-06
 8.18652391e-06
 5.66228352e-06
 5.66228352e-06
 5.66228352e-06
 5.66228352e-06
 5.66228352e-06
 5.66228352e-06
 5.66228352e-06
 5.66228352e-06
 5.66228352e-06
 5.66228352e-06
 3.71282538e-06
 3.71282538e-06
 3.71282538e-06
 3.71282538e-06
 3.71282538e-06
 3.71282538e-06
 4.03984899e-06
 4.03984899e-06
 4.03984899e-06
 4.03984899e-06
 4.03984899e-06
 4.03984899e-06
 4.03984899e-06
 4.39056035e-06
 4.39056035e-06
 4.39056035e-06
 4.39056035e-06
 4.39056035e-06
 4.39056035e-06
 4.39056035e-06
 4.39056035e-06
 4.39056035e-06
 4.39056035e-06
 4.39056035e-06
 4.39056035e-06
 4.39056035e-06
 4.39056035e-06
 4.39056035e-06
 4.69847002e-06
 4.69847002e-06
 4.69847002e-06
 4.69847002e-06
 4.69847002e-06
 4.69847002e-06
 4.69847002e-06
 4.69847002e-06
 4.69847002e-06
 4.69847002e-06
 4.69847002e-06
 4.93088208e-06
 4.93088208e-06
 5.18545377e-06
 5.18545377e-06
 5.18545377e-06
 5.18545377e-06
 5.18545377e-06
 5.18545377e-06
 5.18545377e-06
 5.47411128e-06
 5.47411128e-06
 5.47411128e-06
 5.47411128e-06
 5.47411128e-06
 5.65677735e-06
 5.65677735e-06
 5.80310787e-06
 5.80310787e-06
 5.93560934e-06
)
)
1
(
101
(
 7.77208861e-06
 7.77208861e-06
 7.77208861e-06
 7.77208861e-06
 7.77208861e-06
 7.77208861e-06
 7.77208861e-06
 7.77208861e-06
 7.77208861e-06
 7.77208861e-06
 7.77208861e-06
 7.77208861e-06
 7.77208861e-06
 7.77208861e-06
 7.77208861e-06
 7.77208861e-06
 7.77208861e-06
 7.77208861e-06
 7.77208861e-06
 7.77208861e-06
 7.77208861e-06
 7.77208861e-06
 7.77208861e-06
 7.77208861e-06
 7.77208861e-06
 7.77208861e-06
 5.66228352e-06
 5.66228352e-06
 5.66228352e-06
 5.66228352e-06
 5.66228352e-06
 5.66228352e-06
 5.66228352e-06
 5.66228352e-06
 5.66228352e-06
 5.66228352e-06
 5.66228352e-06
 5.66228352e-06
 5.66228352e-06
 5.66228352e-06
 5.66228352e-06
 5.66228352e-06
 5.66228352e-06
 3.71282538e-06
 3.71282538e-06
 3.71282538e-06
 3.71282538e-06
 3.71282538e-06
 3.71282538e-06
 3.71282538e-06
 4.03984899e-06
 4.03984899e-06
 4.03984899e-06
 4.03984899e-06
 4.03984899e-06
 4.03984899e-06
 4.03984899e-06
 4.39056035e-06
 4.39056035e-06
 4.39056035e-06
 4.39056035e-06
 4.39056035e-06
 4.39056035e-06
 4.39056035e-06
 4.39056035e-06
 4.39056035e-06
 4.39056035e-06
 4.39056035e-06
 4.39056035e-06
 4.39056035e-06
 4.39056035e-06
 4.39056035e-06
 4.69847002e-06
 4.69847002e-06
 4.69847002e-06
 4.69847002e-06
 4.69847002e-06
 4.69847002e-06
 4.69847002e-06
 4.69847002e-06
 4.69847002e-06
 4.69847002e-06
 4.69847002e-06
 4.93088208e-06
 4.93088208e-06
 4.93088208e-06
 5.18545377e-06
 5.18545377e-06
 5.18545377e-06
 5.18545377e-06
 5.18545377e-06
 5.18545377e-06
 5.30902263e-06
 5.47411128e-06
 5.47411128e-06
 5.47411128e-06
 5.68785974e-06
 5.68785974e-06
 5.68785974e-06
 5.80310787e-06
 5.80310787e-06
)
)
1
(
101
(
 7.39803488e-06
 7.39803488e-06
 7.39803488e-06
 7.39803488e-06
 7.39803488e-06
 7.39803488e-06
 7.39803488e-06
 7.39803488e-06
 7.39803488e-06
 7.39803488e-06
 7.39803488e-06
 7.39803488e-06
 7.39803488e-06
 7.39803488e-06
 7.39803488e-06
 7.39803488e-06
 7.39803488e-06
 7.39803488e-06
 7.39803488e-06
 5.66228352e-06
 5.66228352e-06
 5.66228352e-06
 5.66228352e-06
 5.66228352e-06
 5.66228352e-06
 5.66228352e-06
 5.66228352e-06
 5.66228352e-06
 5.66228352e-06
 5.66228352e-06
 5.66228352e-06
 5.66228352e-06
 5.66228352e-06
 5.66228352e-06
 5.66228352e-06
 5.66228352e-06
 5.66228352e-06
 5.66228352e-06
 5.66228352e-06
 5.66228352e-06
 5.66228352e-06
 5.66228352e-06
 3.71282538e-06
 3.71282538e-06
 3.71282538e-06
 3.71282538e-06
 3.71282538e-06
 3.71282538e-06
 3.71282538e-06
 3.71282538e-06
 3.71282538e-06
 4.03984899e-06
 4.03984899e-06
 4.03984899e-06
 4.03984899e-06
 4.03984899e-06
 4.03984899e-06
 4.03984899e-06
 4.03984899e-06
 4.39056035e-06
 4.39056035e-06
 4.39056035e-06
 4.39056035e-06
 4.39056035e-06
 4.39056035e-06
 4.39056035e-06
 4.39056035e-06
 4.39056035e-06
 4.39056035e-06
 4.39056035e-06
 4.39056035e-06
 4.39056035e-06
 4.39056035e-06
 4.69847002e-06
 4.69847002e-06
 4.69847002e-06
 4.69847002e-06
 4.69847002e-06
 4.69847002e-06
 4.69847002e-06
 4.69847002e-06
 4.69847002e-06
 4.69847002e-06
 4.69847002e-06
 4.93088208e-06
 4.93088208e-06
 4.93088208e-06
 5.18545377e-06
 5.18545377e-06
 5.18545377e-06
 5.18545377e-06
 5.18545377e-06
 5.18545377e-06
 5.30902263e-06
 5.30902263e-06
 5.46809402e-06
 5.46809402e-06
 5.68785974e-06
 5.68785974e-06
 5.68785974e-06
 5.68785974e-06
)
)
1
(
101
(
 7.06248547e-06
 7.06248547e-06
 7.06248547e-06
 7.06248547e-06
 7.06248547e-06
 7.06248547e-06
 7.06248547e-06
 7.06248547e-06
 7.06248547e-06
 7.06248547e-06
 7.06248547e-06
 7.06248547e-06
 7.06248547e-06
 7.06248547e-06
 5.66228352e-06
 5.66228352e-06
 5.66228352e-06
 5.66228352e-06
 5.66228352e-06
 5.66228352e-06
 5.66228352e-06
 5.66228352e-06
 5.66228352e-06
 5.66228352e-06
 5.66228352e-06
 5.66228352e-06
 5.66228352e-06
 5.66228352e-06
 5.66228352e-06
 5.66228352e-06
 5.66228352e-06
 5.66228352e-06
 5.66228352e-06
 5.66228352e-06
 5.66228352e-06
 5.66228352e-06
 5.66228352e-06
 5.66228352e-06
 5.66228352e-06
 5.66228352e-06
 5.66228352e-06
 5.66228352e-06
 3.71282538e-06
 3.71282538e-06
 3.71282538e-06
 3.71282538e-06
 3.71282538e-06
 3.71282538e-06
 3.71282538e-06
 3.71282538e-06
 3.71282538e-06
 3.71282538e-06
 4.03984899e-06
 4.03984899e-06
 4.03984899e-06
 4.03984899e-06
 4.03984899e-06
 4.03984899e-06
 4.03984899e-06
 4.03984899e-06
 4.39056035e-06
 4.39056035e-06
 4.39056035e-06
 4.39056035e-06
 4.39056035e-06
 4.39056035e-06
 4.39056035e-06
 4.39056035e-06
 4.39056035e-06
 4.39056035e-06
 4.39056035e-06
 4.39056035e-06
 4.39056035e-06
 4.39056035e-06
 4.39056035e-06
 4.69847002e-06
 4.69847002e-06
 4.69847002e-06
 4.69847002e-06
 4.69847002e-06
 4.69847002e-06
 4.69847002e-06
 4.69847002e-06
 4.69847002e-06
 4.69847002e-06
 4.93088208e-06
 4.93088208e-06
 4.93088208e-06
 4.93088208e-06
 5.18545377e-06
 5.18545377e-06
 5.18545377e-06
 5.18545377e-06
 5.18545377e-06
 5.30902263e-06
 5.30902263e-06
 5.46809402e-06
 5.46809402e-06
 5.68785974e-06
 5.68785974e-06
 5.68785974e-06
)
)
1
(
101
(
 6.73956194e-06
 6.73956194e-06
 6.73956194e-06
 6.73956194e-06
 6.73956194e-06
 6.73956194e-06
 6.73956194e-06
 6.73956194e-06
 6.73956194e-06
 5.66228352e-06
 5.66228352e-06
 5.66228352e-06
 5.66228352e-06
 5.66228352e-06
 5.66228352e-06
 5.66228352e-06
 5.66228352e-06
 5.66228352e-06
 5.66228352e-06
 5.66228352e-06
 5.66228352e-06
 5.66228352e-06
 5.66228352e-06
 5.66228352e-06
 5.66228352e-06
 5.66228352e-06
 5.66228352e-06
 5.66228352e-06
 5.66228352e-06
 5.66228352e-06
 5.66228352e-06
 5.66228352e-06
 5.66228352e-06
 5.66228352e-06
 5.66228352e-06
 5.66228352e-06
 5.66228352e-06
 5.66228352e-06
 5.66228352e-06
 5.66228352e-06
 5.66228352e-06
 5.66228352e-06
 3.71282538e-06
 3.71282538e-06
 3.71282538e-06
 3.71282538e-06
 3.71282538e-06
 3.71282538e-06
 3.71282538e-06
 3.71282538e-06
 3.71282538e-06
 3.71282538e-06
 3.71282538e-06
 3.71282538e-06
 4.03984899e-06
 4.03984899e-06
 4.03984899e-06
 4.03984899e-06
 4.03984899e-06
 4.03984899e-06
 4.03984899e-06
 4.03984899e-06
 4.39056035e-06
 4.39056035e-06
 4.39056035e-06
 4.39056035e-06
 4.39056035e-06
 4.39056035e-06
 4.39056035e-06
 4.39056035e-06
 4.39056035e-06
 4.39056035e-06
 4.39056035e-06
 4.39056035e-06
 4.39056035e-06
 4.39056035e-06
 4.69847002e-06
 4.69847002e-06
 4.69847002e-06
 4.69847002e-06
 4.69847002e-06
 4.69847002e-06
 4.69847002e-06
 4.69847002e-06
 4.69847002e-06
 4.69847002e-06
 4.93088208e-06
 4.93088208e-06
 4.93088208e-06
 4.93088208e-06
 5.04695896e-06
 5.18545377e-06
 5.18545377e-06
 5.18545377e-06
 5.18545377e-06
 5.30902263e-06
 5.30902263e-06
 5.46809402e-06
 5.46809402e-06
 5.68785974e-06
 5.68785974e-06
)
)
1
(
101
(
 6.46423355e-06
 6.46423355e-06
 6.46423355e-06
 6.46423355e-06
 6.46423355e-06
 6.46423355e-06
 5.66228352e-06
 5.66228352e-06
 5.66228352e-06
 5.66228352e-06
 5.66228352e-06
 5.66228352e-06
 5.66228352e-06
 5.66228352e-06
 5.66228352e-06
 5.66228352e-06
 5.66228352e-06
 5.66228352e-06
 5.66228352e-06
 5.66228352e-06
 5.66228352e-06
 5.66228352e-06
 5.66228352e-06
 5.66228352e-06
 5.66228352e-06
 5.66228352e-06
 5.66228352e-06
 5.66228352e-06
 5.66228352e-06
 5.66228352e-06
 5.66228352e-06
 5.66228352e-06
 5.66228352e-06
 5.66228352e-06
 5.66228352e-06
 5.66228352e-06
 5.66228352e-06
 5.66228352e-06
 5.66228352e-06
 5.66228352e-06
 5.66228352e-06
 5.66228352e-06
 3.71282538e-06
 3.71282538e-06
 3.71282538e-06
 3.71282538e-06
 3.71282538e-06
 3.71282538e-06
 3.71282538e-06
 3.71282538e-06
 3.71282538e-06
 3.71282538e-06
 3.71282538e-06
 3.71282538e-06
 3.71282538e-06
 4.03984899e-06
 4.03984899e-06
 4.03984899e-06
 4.03984899e-06
 4.03984899e-06
 4.03984899e-06
 4.03984899e-06
 4.03984899e-06
 4.39056035e-06
 4.39056035e-06
 4.39056035e-06
 4.39056035e-06
 4.39056035e-06
 4.39056035e-06
 4.39056035e-06
 4.39056035e-06
 4.39056035e-06
 4.39056035e-06
 4.39056035e-06
 4.39056035e-06
 4.39056035e-06
 4.39056035e-06
 4.69847002e-06
 4.69847002e-06
 4.69847002e-06
 4.69847002e-06
 4.69847002e-06
 4.69847002e-06
 4.69847002e-06
 4.69847002e-06
 4.69847002e-06
 4.69847002e-06
 4.93088208e-06
 4.93088208e-06
 4.93088208e-06
 4.93088208e-06
 5.04695896e-06
 5.04695896e-06
 5.28959389e-06
 5.28959389e-06
 5.28959389e-06
 5.30902263e-06
 5.30902263e-06
 5.46809402e-06
 5.46809402e-06
 5.68785974e-06
)
)
1
(
101
(
 6.17410537e-06
 6.17410537e-06
 6.17410537e-06
 5.66228352e-06
 5.66228352e-06
 5.66228352e-06
 5.66228352e-06
 5.66228352e-06
 5.66228352e-06
 5.66228352e-06
 5.66228352e-06
 5.66228352e-06
 5.66228352e-06
 5.66228352e-06
 5.66228352e-06
 5.66228352e-06
 5.66228352e-06
 5.66228352e-06
 5.66228352e-06
 5.66228352e-06
 5.66228352e-06
 5.66228352e-06
 5.66228352e-06
 5.66228352e-06
 5.66228352e-06
 5.66228352e-06
 5.66228352e-06
 5.66228352e-06
 5.66228352e-06
 5.66228352e-06
 5.66228352e-06
 5.66228352e-06
 5.66228352e-06
 5.66228352e-06
 5.66228352e-06
 5.66228352e-06
 5.66228352e-06
 5.66228352e-06
 5.66228352e-06
 5.66228352e-06
 5.66228352e-06
 3.45260070e-06
 3.71282538e-06
 3.71282538e-06
 3.71282538e-06
 3.71282538e-06
 3.71282538e-06
 3.71282538e-06
 3.71282538e-06
 3.71282538e-06
 3.71282538e-06
 3.71282538e-06
 3.71282538e-06
 3.71282538e-06
 3.71282538e-06
 3.71282538e-06
 4.03984899e-06
 4.03984899e-06
 4.03984899e-06
 4.03984899e-06
 4.03984899e-06
 4.03984899e-06
 4.03984899e-06
 4.03984899e-06
 4.03984899e-06
 4.39056035e-06
 4.39056035e-06
 4.39056035e-06
 4.39056035e-06
 4.39056035e-06
 4.39056035e-06
 4.39056035e-06
 4.39056035e-06
 4.39056035e-06
 4.39056035e-06
 4.39056035e-06
 4.39056035e-06
 4.39056035e-06
 4.69847002e-06
 4.69847002e-06
 4.69847002e-06
 4.69847002e-06
 4.69847002e-06
 4.69847002e-06
 4.69847002e-06
 4.69847002e-06
 4.69847002e-06
 4.69847002e-06
 4.93088208e-06
 4.93088208e-06
 4.93088208e-06
 4.93088208e-06
 5.04695896e-06
 5.04695896e-06
 5.28959389e-06
 5.28959389e-06
 5.28959389e-06
 5.28959389e-06
 5.30902263e-06
 5.46809402e-06
 5.46809402e-06
)
)
1
(
101
(
 5.97977362e-06
 5.97977362e-06
 5.66228352e-06
 5.66228352e-06
 5.66228352e-06
 5.66228352e-06
 5.66228352e-06
 5.66228352e-06
 5.66228352e-06
 5.66228352e-06
 5.66228352e-06
 5.66228352e-06
 5.66228352e-06
 5.66228352e-06
 5.66228352e-06
 5.66228352e-06
 5.66228352e-06
 5.66228352e-06
 5.66228352e-06
 5.66228352e-06
 5.66228352e-06
 5.66228352e-06
 5.66228352e-06
 5.66228352e-06
 5.66228352e-06
 5.66228352e-06
 5.66228352e-06
 5.66228352e-06
 5.66228352e-06
 5.66228352e-06
 5.66228352e-06
 5.66228352e-06
 5.66228352e-06
 5.66228352e-06
 5.66228352e-06
 5.66228352e-06
 5.66228352e-06
 5.66228352e-06
 5.66228352e-06
 5.66228352e-06
 5.66228352e-06
 3.45260070e-06
 3.45260070e-06
 3.71282538e-06
 3.71282538e-06
 3.71282538e-06
 3.71282538e-06
 3.71282538e-06
 3.71282538e-06
 3.71282538e-06
 3.71282538e-06
 3.71282538e-06
 3.71282538e-06
 3.71282538e-06
 3.71282538e-06
 3.71282538e-06
 3.71282538e-06
 4.03984899e-06
 4.03984899e-06
 4.03984899e-06
 4.03984899e-06
 4.03984899e-06
 4.03984899e-06
 4.03984899e-06
 4.03984899e-06
 4.03984899e-06
 4.39056035e-06
 4.39056035e-06
 4.39056035e-06
 4.39056035e-06
 4.39056035e-06
 4.39056035e-06
 4.39056035e-06
 4.39056035e-06
 4.39056035e-06
 4.39056035e-06
 4.39056035e-06
 4.39056035e-06
 4.39056035e-06
 4.39056035e-06
 4.69847002e-06
 4.69847002e-06
 4.69847002e-06
 4.69847002e-06
 4.69847002e-06
 4.69847002e-06
 4.69847002e-06
 4.69847002e-06
 4.81008732e-06
 4.93088208e-06
 4.93088208e-06
 4.93088208e-06
 5.23146676e-06
 5.23146676e-06
 5.23146676e-06
 5.28959389e-06
 5.28959389e-06
 5.28959389e-06
 5.28959389e-06
 5.28959389e-06
 5.46809402e-06
)
)
1
(
101
(
 5.81155209e-06
 5.66228352e-06
 5.66228352e-06
 5.66228352e-06
 5.66228352e-06
 5.66228352e-06
 5.66228352e-06
 5.66228352e-06
 5.66228352e-06
 5.66228352e-06
 5.66228352e-06
 5.66228352e-06
 5.66228352e-06
 5.66228352e-06
 5.66228352e-06
 5.66228352e-06
 5.66228352e-06
 5.66228352e-06
 5.66228352e-06
 5.66228352e-06
 5.66228352e-06
 5.66228352e-06
 5.66228352e-06
 5.66228352e-06
 5.66228352e-06
 5.66228352e-06
 5.66228352e-06
 5.66228352e-06
 5.66228352e-06
 5.66228352e-06
 5.66228352e-06
 5.66228352e-06
 5.66228352e-06
 5.66228352e-06
 5.66228352e-06
 5.66228352e-06
 5.66228352e-06
 5.66228352e-06
 5.66228352e-06
 5.66228352e-06
 3.45260070e-06
 3.45260070e-06
 3.45260070e-06
 3.45260070e-06
 3.71282538e-06
 3.71282538e-06
 3.71282538e-06
 3.71282538e-06
 3.71282538e-06
 3.71282538e-06
 3.71282538e-06
 3.71282538e-06
 3.71282538e-06
 3.71282538e-06
 3.71282538e-06
 3.71282538e-06
 3.71282538e-06
 3.71282538e-06
 4.03984899e-06
 4.03984899e-06
 4.03984899e-06
 4.03984899e-06
 4.03984899e-06
 4.03984899e-06
 4.03984899e-06
 4.03984899e-06
 4.03984899e-06
 4.03984899e-06
 4.39056035e-06
 4.39056035e-06
 4.39056035e-06
 4.39056035e-06
 4.39056035e-06
 4.39056035e-06
 4.39056035e-06
 4.39056035e-06
 4.39056035e-06
 4.39056035e-06
 4.39056035e-06
 4.39056035e-06
 4.39056035e-06
 4.56041929e-06
 4.69847002e-06
 4.69847002e-06
 4.69847002e-06
 4.69847002e-06
 4.69847002e-06
 4.69847002e-06
 4.69847002e-06
 4.81008732e-06
 4.81008732e-06
 4.90710814e-06
 4.90710814e-06
 5.23146676e-06
 5.23146676e-06
 5.23146676e-06
 5.23146676e-06
 5.28959389e-06
 5.28959389e-06
 5.28959389e-06
 5.28959389e-06
)
)
1
(
101
(
 5.81155209e-06
 5.52960265e-06
 5.52960265e-06
 5.52960265e-06
 5.52960265e-06
 5.52960265e-06
 5.52960265e-06
 5.52960265e-06
 5.52960265e-06
 5.52960265e-06
 5.52960265e-06
 5.52960265e-06
 5.52960265e-06
 5.52960265e-06
 5.52960265e-06
 5.52960265e-06
 5.52960265e-06
 5.52960265e-06
 5.52960265e-06
 5.52960265e-06
 5.52960265e-06
 5.52960265e-06
 5.52960265e-06
 5.52960265e-06
 5.52960265e-06
 5.52960265e-06
 5.52960265e-06
 5.52960265e-06
 5.52960265e-06
 5.52960265e-06
 5.52960265e-06
 5.52960265e-06
 5.52960265e-06
 5.52960265e-06
 5.52960265e-06
 5.52960265e-06
 5.52960265e-06
 5.52960265e-06
 5.52960265e-06
 5.52960265e-06
 3.45260070e-06
 3.45260070e-06
 3.45260070e-06
 3.45260070e-06
 3.45260070e-06
 3.71282538e-06
 3.71282538e-06
 3.71282538e-06
 3.71282538e-06
 3.71282538e-06
 3.71282538e-06
 3.71282538e-06
 3.71282538e-06
 3.71282538e-06
 3.71282538e-06
 3.71282538e-06
 3.71282538e-06
 3.71282538e-06
 3.71282538e-06
 4.03984899e-06
 4.03984899e-06
 4.03984899e-06
 4.03984899e-06
 4.03984899e-06
 4.03984899e-06
 4.03984899e-06
 4.03984899e-06
 4.03984899e-06
 4.03984899e-06
 4.39056035e-06
 4.39056035e-06
 4.39056035e-06
 4.39056035e-06
 4.39056035e-06
 4.39056035e-06
 4.39056035e-06
 4.39056035e-06
 4.39056035e-06
 4.39056035e-06
 4.39056035e-06
 4.39056035e-06
 4.39056035e-06
 4.56041929e-06
 4.56041929e-06
 4.69847002e-06
 4.69847002e-06
 4.69847002e-06
 4.69847002e-06
 4.69847002e-06
 4.81008732e-06
 4.81008732e-06
 4.81008732e-06
 4.90710814e-06
 4.90710814e-06
 5.23146676e-06
 5.23146676e-06
 5.23146676e-06
 5.23146676e-06
 5.23146676e-06
 5.28959389e-06
 5.28959389e-06
)
)
1
(
101
(
 5.31486627e-06
 5.31486627e-06
 5.31486627e-06
 5.31486627e-06
 5.31486627e-06
 5.31486627e-06
 5.31486627e-06
 5.31486627e-06
 5.31486627e-06
 5.31486627e-06
 5.31486627e-06
 5.31486627e-06
 5.31486627e-06
 5.31486627e-06
 5.31486627e-06
 5.31486627e-06
 5.31486627e-06
 5.31486627e-06
 5.31486627e-06
 5.31486627e-06
 5.31486627e-06
 5.31486627e-06
 5.31486627e-06
 5.31486627e-06
 5.31486627e-06
 5.31486627e-06
 5.31486627e-06
 5.31486627e-06
 5.31486627e-06
 5.31486627e-06
 5.31486627e-06
 5.31486627e-06
 5.31486627e-06
 5.31486627e-06
 5.31486627e-06
 5.31486627e-06
 5.31486627e-06
 5.31486627e-06
 5.31486627e-06
 5.31486627e-06
 3.45260070e-06
 3.45260070e-06
 3.45260070e-06
 3.45260070e-06
 3.45260070e-06
 3.45260070e-06
 3.71282538e-06
 3.71282538e-06
 3.71282538e-06
 3.71282538e-06
 3.71282538e-06
 3.71282538e-06
 3.71282538e-06
 3.71282538e-06
 3.71282538e-06
 3.71282538e-06
 3.71282538e-06
 3.71282538e-06
 3.71282538e-06
 3.71282538e-06
 3.71282538e-06
 4.03984899e-06
 4.03984899e-06
 4.03984899e-06
 4.03984899e-06
 4.03984899e-06
 4.03984899e-06
 4.03984899e-06
 4.03984899e-06
 4.03984899e-06
 4.03984899e-06
 4.39056035e-06
 4.39056035e-06
 4.39056035e-06
 4.39056035e-06
 4.39056035e-06
 4.39056035e-06
 4.39056035e-06
 4.39056035e-06
 4.39056035e-06
 4.39056035e-06
 4.39056035e-06
 4.39056035e-06
 4.56041929e-06
 4.56041929e-06
 4.56041929e-06
 4.69847002e-06
 4.69847002e-06
 4.69847002e-06
 4.69847002e-06
 4.81008732e-06
 4.81008732e-06
 4.81008732e-06
 4.90710814e-06
 4.90710814e-06
 5.23146676e-06
 5.23146676e-06
 5.23146676e-06
 5.23146676e-06
 5.23146676e-06
 5.23146676e-06
)
)
1
(
101
(
 5.13160840e-06
 5.13160840e-06
 5.13160840e-06
 5.13160840e-06
 5.13160840e-06
 5.13160840e-06
 5.13160840e-06
 5.13160840e-06
 5.13160840e-06
 5.13160840e-06
 5.13160840e-06
 5.13160840e-06
 5.13160840e-06
 5.13160840e-06
 5.13160840e-06
 5.13160840e-06
 5.13160840e-06
 5.13160840e-06
 5.13160840e-06
 5.13160840e-06
 5.13160840e-06
 5.13160840e-06
 5.13160840e-06
 5.13160840e-06
 5.13160840e-06
 5.13160840e-06
 5.13160840e-06
 5.13160840e-06
 5.13160840e-06
 5.13160840e-06
 5.13160840e-06
 5.13160840e-06
 5.13160840e-06
 5.13160840e-06
 5.13160840e-06
 5.13160840e-06
 5.13160840e-06
 5.13160840e-06
 5.13160840e-06
 3.45260070e-06
 3.45260070e-06
 3.45260070e-06
 3.45260070e-06
 3.45260070e-06
 3.45260070e-06
 3.45260070e-06
 3.45260070e-06
 3.45260070e-06
 3.71282538e-06
 3.71282538e-06
 3.71282538e-06
 3.71282538e-06
 3.71282538e-06
 3.71282538e-06
 3.71282538e-06
 3.71282538e-06
 3.71282538e-06
 3.71282538e-06
 3.71282538e-06
 3.71282538e-06
 3.71282538e-06
 3.71282538e-06
 4.03984899e-06
 4.03984899e-06
 4.03984899e-06
 4.03984899e-06
 4.03984899e-06
 4.03984899e-06
 4.03984899e-06
 4.03984899e-06
 4.03984899e-06
 4.03984899e-06
 4.39056035e-06
 4.39056035e-06
 4.39056035e-06
 4.39056035e-06
 4.39056035e-06
 4.39056035e-06
 4.39056035e-06
 4.39056035e-06
 4.39056035e-06
 4.39056035e-06
 4.39056035e-06
 4.39056035e-06
 4.56041929e-06
 4.56041929e-06
 4.56041929e-06
 4.56041929e-06
 4.63957705e-06
 4.63957705e-06
 4.63957705e-06
 4.81008732e-06
 4.81008732e-06
 4.81008732e-06
 4.90710814e-06
 4.90710814e-06
 5.23146676e-06