/*--------------------------------*- C++ -*----------------------------------*\
| =========                 |                                                 |
| \\      /  F ield        | OpenFOAM: The Open Source CFD Toolbox           |
|  \\    /   O peration    | Version:  7                                     |
|   \\  /    A nd          | Web:      http://www.OpenFOAM.com               |
|    \\/     M anipulation |                                                 |
\*---------------------------------------------------------------------------*/

FoamFile
{
    version     2.0;
    format      ascii;
    class       dictionary;
    object      rho_table;
}

rho_table
2
(
101
(
1
(
101
(
 1.17038110e+00
 1.17038110e+00
 1.17038110e+00
 1.17038110e+00
 1.17038110e+00
 1.17038110e+00
 1.17038110e+00
 1.17038110e+00
 1.17038110e+00
 1.17038110e+00
 1.17038110e+00
 1.17038110e+00
 1.17038110e+00
 1.17038110e+00
 1.17038110e+00
 1.17038110e+00
 1.17038110e+00
 1.17038110e+00
 1.17038110e+00
 1.17038110e+00
 1.17038110e+00
 1.17038110e+00
 1.17038110e+00
 1.17038110e+00
 1.17038110e+00
 1.17038110e+00
 1.17038110e+00
 1.17038110e+00
 1.17038110e+00
 1.17038110e+00
 1.17038110e+00
 1.17038110e+00
 1.17038110e+00
 1.17038110e+00
 1.17038110e+00
 1.17038110e+00
 1.17038110e+00
 1.17038110e+00
 1.17038110e+00
 1.17038110e+00
 1.17038110e+00
 1.17038110e+00
 1.17038110e+00
 1.17038110e+00
 1.17038110e+00
 4.09352404e-01
 4.09352404e-01
 4.44880900e-01
 4.44880900e-01
 4.44880900e-01
 4.44880900e-01
 4.44880900e-01
 4.44880900e-01
 4.44880900e-01
 4.44880900e-01
 4.44880900e-01
 4.44880900e-01
 4.44880900e-01
 4.44880900e-01
 4.44880900e-01
 4.44880900e-01
 4.44880900e-01
 4.44880900e-01
 4.76079599e-01
 4.76079599e-01
 4.76079599e-01
 4.76079599e-01
 4.76079599e-01
 4.76079599e-01
 4.76079599e-01
 4.76079599e-01
 4.76079599e-01
 4.76079599e-01
 4.76079599e-01
 4.76079599e-01
 5.25422042e-01
 5.25422042e-01
 5.25422042e-01
 5.25422042e-01
 5.25422042e-01
 5.25422042e-01
 5.25422042e-01
 5.54670397e-01
 5.54670397e-01
 5.54670397e-01
 5.54670397e-01
 5.54670397e-01
 5.54670397e-01
 5.87811498e-01
 5.87811498e-01
 5.87811498e-01
 5.87811498e-01
 5.87811498e-01
 5.87811498e-01
 5.87811498e-01
 6.33106285e-01
 6.33106285e-01
 6.33106285e-01
 6.33106285e-01
 6.33106285e-01
 6.51335147e-01
)
)
1
(
101
(
 1.10665315e+00
 1.10665315e+00
 1.10665315e+00
 1.10665315e+00
 1.10665315e+00
 1.10665315e+00
 1.10665315e+00
 1.10665315e+00
 1.10665315e+00
 1.10665315e+00
 1.10665315e+00
 1.10665315e+00
 1.10665315e+00
 1.10665315e+00
 1.10665315e+00
 1.10665315e+00
 1.10665315e+00
 1.10665315e+00
 1.10665315e+00
 1.10665315e+00
 1.10665315e+00
 1.10665315e+00
 1.10665315e+00
 1.10665315e+00
 1.10665315e+00
 1.10665315e+00
 1.10665315e+00
 1.10665315e+00
 1.10665315e+00
 1.10665315e+00
 1.10665315e+00
 1.10665315e+00
 1.10665315e+00
 1.10665315e+00
 1.10665315e+00
 1.10665315e+00
 1.10665315e+00
 1.10665315e+00
 1.10665315e+00
 1.10665315e+00
 1.10665315e+00
 1.10665315e+00
 1.10665315e+00
 1.10665315e+00
 1.10665315e+00
 4.09352404e-01
 4.09352404e-01
 4.09352404e-01
 4.44880900e-01
 4.44880900e-01
 4.44880900e-01
 4.44880900e-01
 4.44880900e-01
 4.44880900e-01
 4.44880900e-01
 4.44880900e-01
 4.44880900e-01
 4.44880900e-01
 4.44880900e-01
 4.44880900e-01
 4.44880900e-01
 4.44880900e-01
 4.44880900e-01
 4.44880900e-01
 4.44880900e-01
 4.76079599e-01
 4.76079599e-01
 4.76079599e-01
 4.76079599e-01
 4.76079599e-01
 4.76079599e-01
 4.76079599e-01
 4.76079599e-01
 4.76079599e-01
 4.76079599e-01
 4.76079599e-01
 4.76079599e-01
 5.25422042e-01
 5.25422042e-01
 5.25422042e-01
 5.25422042e-01
 5.25422042e-01
 5.25422042e-01
 5.54670397e-01
 5.54670397e-01
 5.54670397e-01
 5.54670397e-01
 5.54670397e-01
 5.54670397e-01
 5.54670397e-01
 5.87811498e-01
 5.87811498e-01
 5.87811498e-01
 5.87811498e-01
 5.87811498e-01
 5.87811498e-01
 6.06946902e-01
 6.33106285e-01
 6.33106285e-01
 6.33106285e-01
 6.41052853e-01
)
)
1
(
101
(
 1.03808053e+00
 1.03808053e+00
 1.03808053e+00
 1.03808053e+00
 1.03808053e+00
 1.03808053e+00
 1.03808053e+00
 1.03808053e+00
 1.03808053e+00
 1.03808053e+00
 1.03808053e+00
 1.03808053e+00
 1.03808053e+00
 1.03808053e+00
 1.03808053e+00
 1.03808053e+00
 1.03808053e+00
 1.03808053e+00
 1.03808053e+00
 1.03808053e+00
 1.03808053e+00
 1.03808053e+00
 1.03808053e+00
 1.03808053e+00
 1.03808053e+00
 1.03808053e+00
 1.03808053e+00
 1.03808053e+00
 1.03808053e+00
 1.03808053e+00
 1.03808053e+00
 1.03808053e+00
 1.03808053e+00
 1.03808053e+00
 1.03808053e+00
 1.03808053e+00
 1.03808053e+00
 1.03808053e+00
 1.03808053e+00
 1.03808053e+00
 1.03808053e+00
 1.03808053e+00
 1.03808053e+00
 1.03808053e+00
 4.09352404e-01
 4.09352404e-01
 4.09352404e-01
 4.09352404e-01
 4.09352404e-01
 4.09352404e-01
 4.44880900e-01
 4.44880900e-01
 4.44880900e-01
 4.44880900e-01
 4.44880900e-01
 4.44880900e-01
 4.44880900e-01
 4.44880900e-01
 4.44880900e-01
 4.44880900e-01
 4.44880900e-01
 4.44880900e-01
 4.44880900e-01
 4.44880900e-01
 4.44880900e-01
 4.44880900e-01
 4.76079599e-01
 4.76079599e-01
 4.76079599e-01
 4.76079599e-01
 4.76079599e-01
 4.76079599e-01
 4.76079599e-01
 4.76079599e-01
 4.76079599e-01
 4.76079599e-01
 4.76079599e-01
 4.76079599e-01
 5.25422042e-01
 5.25422042e-01
 5.25422042e-01
 5.25422042e-01
 5.25422042e-01
 5.25422042e-01
 5.25422042e-01
 5.54670397e-01
 5.54670397e-01
 5.54670397e-01
 5.54670397e-01
 5.54670397e-01
 5.54670397e-01
 5.87811498e-01
 5.87811498e-01
 5.87811498e-01
 5.87811498e-01
 5.87811498e-01
 5.87811498e-01
 6.06946902e-01
 6.06946902e-01
 6.23912287e-01
 6.23912287e-01
)
)
1
(
101
(
 9.77527331e-01
 9.77527331e-01
 9.77527331e-01
 9.77527331e-01
 9.77527331e-01
 9.77527331e-01
 9.77527331e-01
 9.77527331e-01
 9.77527331e-01
 9.77527331e-01
 9.77527331e-01
 9.77527331e-01
 9.77527331e-01
 9.77527331e-01
 9.77527331e-01
 9.77527331e-01
 9.77527331e-01
 9.77527331e-01
 9.77527331e-01
 9.77527331e-01
 9.77527331e-01
 9.77527331e-01
 9.77527331e-01
 9.77527331e-01
 9.77527331e-01
 9.77527331e-01
 9.77527331e-01
 9.77527331e-01
 9.77527331e-01
 9.77527331e-01
 9.77527331e-01
 9.77527331e-01
 9.77527331e-01
 9.77527331e-01
 9.77527331e-01
 9.77527331e-01
 9.77527331e-01
 9.77527331e-01
 9.77527331e-01
 9.77527331e-01
 9.77527331e-01
 9.77527331e-01
 9.77527331e-01
 9.77527331e-01
 3.76205536e-01
 4.09352404e-01
 4.09352404e-01
 4.09352404e-01
 4.09352404e-01
 4.09352404e-01
 4.09352404e-01
 4.44880900e-01
 4.44880900e-01
 4.44880900e-01
 4.44880900e-01
 4.44880900e-01
 4.44880900e-01
 4.44880900e-01
 4.44880900e-01
 4.44880900e-01
 4.44880900e-01
 4.44880900e-01
 4.44880900e-01
 4.44880900e-01
 4.44880900e-01
 4.44880900e-01
 4.44880900e-01
 4.76079599e-01
 4.76079599e-01
 4.76079599e-01
 4.76079599e-01
 4.76079599e-01
 4.76079599e-01
 4.76079599e-01
 4.76079599e-01
 4.76079599e-01
 4.76079599e-01
 4.76079599e-01
 4.76079599e-01
 4.99634687e-01
 5.25422042e-01
 5.25422042e-01
 5.25422042e-01
 5.25422042e-01
 5.25422042e-01
 5.25422042e-01
 5.54670397e-01
 5.54670397e-01
 5.54670397e-01
 5.54670397e-01
 5.54670397e-01
 5.54670397e-01
 5.54670397e-01
 5.87811498e-01
 5.87811498e-01
 5.87811498e-01
 5.87811498e-01
 5.87811498e-01
 6.06946902e-01
 6.22254527e-01
 6.22254527e-01
)
)
1
(
101
(
 9.20948484e-01
 9.20948484e-01
 9.20948484e-01
 9.20948484e-01
 9.20948484e-01
 9.20948484e-01
 9.20948484e-01
 9.20948484e-01
 9.20948484e-01
 9.20948484e-01
 9.20948484e-01
 9.20948484e-01
 9.20948484e-01
 9.20948484e-01
 9.20948484e-01
 9.20948484e-01
 9.20948484e-01
 9.20948484e-01
 9.20948484e-01
 9.20948484e-01
 9.20948484e-01
 9.20948484e-01
 9.20948484e-01
 9.20948484e-01
 9.20948484e-01
 9.20948484e-01
 9.20948484e-01
 9.20948484e-01
 9.20948484e-01
 9.20948484e-01
 9.20948484e-01
 9.20948484e-01
 9.20948484e-01
 9.20948484e-01
 9.20948484e-01
 9.20948484e-01
 9.20948484e-01
 9.20948484e-01
 9.20948484e-01
 9.20948484e-01
 9.20948484e-01
 9.20948484e-01
 9.20948484e-01
 9.20948484e-01
 3.76205536e-01
 3.76205536e-01
 3.76205536e-01
 4.09352404e-01
 4.09352404e-01
 4.09352404e-01
 4.09352404e-01
 4.09352404e-01
 4.09352404e-01
 4.44880900e-01
 4.44880900e-01
 4.44880900e-01
 4.44880900e-01
 4.44880900e-01
 4.44880900e-01
 4.44880900e-01
 4.44880900e-01
 4.44880900e-01
 4.44880900e-01
 4.44880900e-01
 4.44880900e-01
 4.44880900e-01
 4.44880900e-01
 4.44880900e-01
 4.76079599e-01
 4.76079599e-01
 4.76079599e-01
 4.76079599e-01
 4.76079599e-01
 4.76079599e-01
 4.76079599e-01
 4.76079599e-01
 4.76079599e-01
 4.76079599e-01
 4.76079599e-01
 4.76079599e-01
 4.99634687e-01
 5.25422042e-01
 5.25422042e-01
 5.25422042e-01
 5.25422042e-01
 5.25422042e-01
 5.25422042e-01
 5.25422042e-01
 5.54670397e-01
 5.54670397e-01
 5.54670397e-01
 5.54670397e-01
 5.54670397e-01
 5.54670397e-01
 5.73353977e-01
 5.87811498e-01
 5.87811498e-01
 5.87811498e-01
 6.01866697e-01
 6.01866697e-01
 6.22254527e-01
)
)
1
(
101
(
 8.73304809e-01
 8.73304809e-01
 8.73304809e-01
 8.73304809e-01
 8.73304809e-01
 8.73304809e-01
 8.73304809e-01
 8.73304809e-01
 8.73304809e-01
 8.73304809e-01
 8.73304809e-01
 8.73304809e-01
 8.73304809e-01
 8.73304809e-01
 8.73304809e-01
 8.73304809e-01
 8.73304809e-01
 8.73304809e-01
 8.73304809e-01
 8.73304809e-01
 8.73304809e-01
 8.73304809e-01
 8.73304809e-01
 8.73304809e-01
 8.73304809e-01
 8.73304809e-01
 8.73304809e-01
 8.73304809e-01
 8.73304809e-01
 8.73304809e-01
 8.73304809e-01
 8.73304809e-01
 8.73304809e-01
 8.73304809e-01
 8.73304809e-01
 8.73304809e-01
 8.73304809e-01
 8.73304809e-01
 8.73304809e-01
 8.73304809e-01
 8.73304809e-01
 8.73304809e-01
 5.73764093e-01
 3.76205536e-01
 3.76205536e-01
 3.76205536e-01
 3.76205536e-01
 3.76205536e-01
 4.09352404e-01
 4.09352404e-01
 4.09352404e-01
 4.09352404e-01
 4.09352404e-01
 4.09352404e-01
 4.44880900e-01
 4.44880900e-01
 4.44880900e-01
 4.44880900e-01
 4.44880900e-01
 4.44880900e-01
 4.44880900e-01
 4.44880900e-01
 4.44880900e-01
 4.44880900e-01
 4.44880900e-01
 4.44880900e-01
 4.44880900e-01
 4.44880900e-01
 4.44880900e-01
 4.44880900e-01
 4.76079599e-01
 4.76079599e-01
 4.76079599e-01
 4.76079599e-01
 4.76079599e-01
 4.76079599e-01
 4.76079599e-01
 4.76079599e-01
 4.76079599e-01
 4.76079599e-01
 4.76079599e-01
 4.99634687e-01
 4.99634687e-01
 5.25422042e-01
 5.25422042e-01
 5.25422042e-01
 5.25422042e-01
 5.25422042e-01
 5.25422042e-01
 5.54670397e-01
 5.54670397e-01
 5.54670397e-01
 5.54670397e-01
 5.54670397e-01
 5.54670397e-01
 5.73353977e-01
 5.73353977e-01
 5.88370543e-01
 5.88370543e-01
 6.01866697e-01
 6.01866697e-01
)
)
1
(
101
(
 8.29935860e-01
 8.29935860e-01
 8.29935860e-01
 8.29935860e-01
 8.29935860e-01
 8.29935860e-01
 8.29935860e-01
 8.29935860e-01
 8.29935860e-01
 8.29935860e-01
 8.29935860e-01
 8.29935860e-01
 8.29935860e-01
 8.29935860e-01
 8.29935860e-01
 8.29935860e-01
 8.29935860e-01
 8.29935860e-01
 8.29935860e-01
 8.29935860e-01
 8.29935860e-01
 8.29935860e-01
 8.29935860e-01
 8.29935860e-01
 8.29935860e-01
 8.29935860e-01
 8.29935860e-01
 8.29935860e-01
 8.29935860e-01
 8.29935860e-01
 8.29935860e-01
 8.29935860e-01
 8.29935860e-01
 5.73764093e-01
 5.73764093e-01
 5.73764093e-01
 5.73764093e-01
 5.73764093e-01
 5.73764093e-01
 5.73764093e-01
 5.73764093e-01
 5.73764093e-01
 5.73764093e-01
 3.76205536e-01
 3.76205536e-01
 3.76205536e-01
 3.76205536e-01
 3.76205536e-01
 3.76205536e-01
 4.09352404e-01
 4.09352404e-01
 4.09352404e-01
 4.09352404e-01
 4.09352404e-01
 4.09352404e-01
 4.09352404e-01
 4.44880900e-01
 4.44880900e-01
 4.44880900e-01
 4.44880900e-01
 4.44880900e-01
 4.44880900e-01
 4.44880900e-01
 4.44880900e-01
 4.44880900e-01
 4.44880900e-01
 4.44880900e-01
 4.44880900e-01
 4.44880900e-01
 4.44880900e-01
 4.44880900e-01
 4.76079599e-01
 4.76079599e-01
 4.76079599e-01
 4.76079599e-01
 4.76079599e-01
 4.76079599e-01
 4.76079599e-01
 4.76079599e-01
 4.76079599e-01
 4.76079599e-01
 4.76079599e-01
 4.99634687e-01
 4.99634687e-01
 5.25422042e-01
 5.25422042e-01
 5.25422042e-01
 5.25422042e-01
 5.25422042e-01
 5.25422042e-01
 5.25422042e-01
 5.54670397e-01
 5.54670397e-01
 5.54670397e-01
 5.54670397e-01
 5.54670397e-01
 5.73353977e-01
 5.73353977e-01
 5.88370543e-01
 5.88370543e-01
 6.01866697e-01
)
)
1
(
101
(
 7.87924388e-01
 7.87924388e-01
 7.87924388e-01
 7.87924388e-01
 7.87924388e-01
 7.87924388e-01
 7.87924388e-01
 7.87924388e-01
 7.87924388e-01
 7.87924388e-01
 7.87924388e-01
 7.87924388e-01
 7.87924388e-01
 7.87924388e-01
 7.87924388e-01
 7.87924388e-01
 7.87924388e-01
 7.87924388e-01
 7.87924388e-01
 7.87924388e-01
 7.87924388e-01
 7.87924388e-01
 7.87924388e-01
 7.87924388e-01
 7.87924388e-01
 7.87924388e-01
 5.73764093e-01
 5.73764093e-01
 5.73764093e-01
 5.73764093e-01
 5.73764093e-01
 5.73764093e-01
 5.73764093e-01
 5.73764093e-01
 5.73764093e-01
 5.73764093e-01
 5.73764093e-01
 5.73764093e-01
 5.73764093e-01
 5.73764093e-01
 5.73764093e-01
 5.73764093e-01
 5.73764093e-01
 3.76205536e-01
 3.76205536e-01
 3.76205536e-01
 3.76205536e-01
 3.76205536e-01
 3.76205536e-01
 3.76205536e-01
 4.09352404e-01
 4.09352404e-01
 4.09352404e-01
 4.09352404e-01
 4.09352404e-01
 4.09352404e-01
 4.09352404e-01
 4.44880900e-01
 4.44880900e-01
 4.44880900e-01
 4.44880900e-01
 4.44880900e-01
 4.44880900e-01
 4.44880900e-01
 4.44880900e-01
 4.44880900e-01
 4.44880900e-01
 4.44880900e-01
 4.44880900e-01
 4.44880900e-01
 4.44880900e-01
 4.44880900e-01
 4.76079599e-01
 4.76079599e-01
 4.76079599e-01
 4.76079599e-01
 4.76079599e-01
 4.76079599e-01
 4.76079599e-01
 4.76079599e-01
 4.76079599e-01
 4.76079599e-01
 4.76079599e-01
 4.99634687e-01
 4.99634687e-01
 4.99634687e-01
 5.25422042e-01
 5.25422042e-01
 5.25422042e-01
 5.25422042e-01
 5.25422042e-01
 5.25422042e-01
 5.37955112e-01
 5.54670397e-01
 5.54670397e-01
 5.54670397e-01
 5.78054673e-01
 5.78054673e-01
 5.78054673e-01
 5.88370543e-01
 5.88370543e-01
)
)
1
(
101
(
 7.49811890e-01
 7.49811890e-01
 7.49811890e-01
 7.49811890e-01
 7.49811890e-01
 7.49811890e-01
 7.49811890e-01
 7.49811890e-01
 7.49811890e-01
 7.49811890e-01
 7.49811890e-01
 7.49811890e-01
 7.49811890e-01
 7.49811890e-01
 7.49811890e-01
 7.49811890e-01
 7.49811890e-01
 7.49811890e-01
 7.49811890e-01
 5.73764093e-01
 5.73764093e-01
 5.73764093e-01
 5.73764093e-01
 5.73764093e-01
 5.73764093e-01
 5.73764093e-01
 5.73764093e-01
 5.73764093e-01
 5.73764093e-01
 5.73764093e-01
 5.73764093e-01
 5.73764093e-01
 5.73764093e-01
 5.73764093e-01
 5.73764093e-01
 5.73764093e-01
 5.73764093e-01
 5.73764093e-01
 5.73764093e-01
 5.73764093e-01
 5.73764093e-01
 5.73764093e-01
 3.76205536e-01
 3.76205536e-01
 3.76205536e-01
 3.76205536e-01
 3.76205536e-01
 3.76205536e-01
 3.76205536e-01
 3.76205536e-01
 3.76205536e-01
 4.09352404e-01
 4.09352404e-01
 4.09352404e-01
 4.09352404e-01
 4.09352404e-01
 4.09352404e-01
 4.09352404e-01
 4.09352404e-01
 4.44880900e-01
 4.44880900e-01
 4.44880900e-01
 4.44880900e-01
 4.44880900e-01
 4.44880900e-01
 4.44880900e-01
 4.44880900e-01
 4.44880900e-01
 4.44880900e-01
 4.44880900e-01
 4.44880900e-01
 4.44880900e-01
 4.44880900e-01
 4.76079599e-01
 4.76079599e-01
 4.76079599e-01
 4.76079599e-01
 4.76079599e-01
 4.76079599e-01
 4.76079599e-01
 4.76079599e-01
 4.76079599e-01
 4.76079599e-01
 4.76079599e-01
 4.99634687e-01
 4.99634687e-01
 4.99634687e-01
 5.25422042e-01
 5.25422042e-01
 5.25422042e-01
 5.25422042e-01
 5.25422042e-01
 5.25422042e-01
 5.37955112e-01
 5.37955112e-01
 5.54337472e-01
 5.54337472e-01
 5.78054673e-01
 5.78054673e-01
 5.78054673e-01
 5.78054673e-01
)
)
1
(
101
(
 7.15975256e-01
 7.15975256e-01
 7.15975256e-01
 7.15975256e-01
 7.15975256e-01
 7.15975256e-01
 7.15975256e-01
 7.15975256e-01
 7.15975256e-01
 7.15975256e-01
 7.15975256e-01
 7.15975256e-01
 7.15975256e-01
 7.15975256e-01
 5.73764093e-01
 5.73764093e-01
 5.73764093e-01
 5.73764093e-01
 5.73764093e-01
 5.73764093e-01
 5.73764093e-01
 5.73764093e-01
 5.73764093e-01
 5.73764093e-01
 5.73764093e-01
 5.73764093e-01
 5.73764093e-01
 5.73764093e-01
 5.73764093e-01
 5.73764093e-01
 5.73764093e-01
 5.73764093e-01
 5.73764093e-01
 5.73764093e-01
 5.73764093e-01
 5.73764093e-01
 5.73764093e-01
 5.73764093e-01
 5.73764093e-01
 5.73764093e-01
 5.73764093e-01
 5.73764093e-01
 3.76205536e-01
 3.76205536e-01
 3.76205536e-01
 3.76205536e-01
 3.76205536e-01
 3.76205536e-01
 3.76205536e-01
 3.76205536e-01
 3.76205536e-01
 3.76205536e-01
 4.09352404e-01
 4.09352404e-01
 4.09352404e-01
 4.09352404e-01
 4.09352404e-01
 4.09352404e-01
 4.09352404e-01
 4.09352404e-01
 4.44880900e-01
 4.44880900e-01
 4.44880900e-01
 4.44880900e-01
 4.44880900e-01
 4.44880900e-01
 4.44880900e-01
 4.44880900e-01
 4.44880900e-01
 4.44880900e-01
 4.44880900e-01
 4.44880900e-01
 4.44880900e-01
 4.44880900e-01
 4.44880900e-01
 4.76079599e-01
 4.76079599e-01
 4.76079599e-01
 4.76079599e-01
 4.76079599e-01
 4.76079599e-01
 4.76079599e-01
 4.76079599e-01
 4.76079599e-01
 4.76079599e-01
 4.99634687e-01
 4.99634687e-01
 4.99634687e-01
 4.99634687e-01
 5.25422042e-01
 5.25422042e-01
 5.25422042e-01
 5.25422042e-01
 5.25422042e-01
 5.37955112e-01
 5.37955112e-01
 5.54337472e-01
 5.54337472e-01
 5.78054673e-01
 5.78054673e-01
 5.78054673e-01
)
)
1
(
101
(
 6.83108030e-01
 6.83108030e-01
 6.83108030e-01
 6.83108030e-01
 6.83108030e-01
 6.83108030e-01
 6.83108030e-01
 6.83108030e-01
 6.83108030e-01
 5.73764093e-01
 5.73764093e-01
 5.73764093e-01
 5.73764093e-01
 5.73764093e-01
 5.73764093e-01
 5.73764093e-01
 5.73764093e-01
 5.73764093e-01
 5.73764093e-01
 5.73764093e-01
 5.73764093e-01
 5.73764093e-01
 5.73764093e-01
 5.73764093e-01
 5.73764093e-01
 5.73764093e-01
 5.73764093e-01
 5.73764093e-01
 5.73764093e-01
 5.73764093e-01
 5.73764093e-01
 5.73764093e-01
 5.73764093e-01
 5.73764093e-01
 5.73764093e-01
 5.73764093e-01
 5.73764093e-01
 5.73764093e-01
 5.73764093e-01
 5.73764093e-01
 5.73764093e-01
 5.73764093e-01
 3.76205536e-01
 3.76205536e-01
 3.76205536e-01
 3.76205536e-01
 3.76205536e-01
 3.76205536e-01
 3.76205536e-01
 3.76205536e-01
 3.76205536e-01
 3.76205536e-01
 3.76205536e-01
 3.76205536e-01
 4.09352404e-01
 4.09352404e-01
 4.09352404e-01
 4.09352404e-01
 4.09352404e-01
 4.09352404e-01
 4.09352404e-01
 4.09352404e-01
 4.44880900e-01
 4.44880900e-01
 4.44880900e-01
 4.44880900e-01
 4.44880900e-01
 4.44880900e-01
 4.44880900e-01
 4.44880900e-01
 4.44880900e-01
 4.44880900e-01
 4.44880900e-01
 4.44880900e-01
 4.44880900e-01
 4.44880900e-01
 4.76079599e-01
 4.76079599e-01
 4.76079599e-01
 4.76079599e-01
 4.76079599e-01
 4.76079599e-01
 4.76079599e-01
 4.76079599e-01
 4.76079599e-01
 4.76079599e-01
 4.99634687e-01
 4.99634687e-01
 4.99634687e-01
 4.99634687e-01
 5.11393497e-01
 5.25422042e-01
 5.25422042e-01
 5.25422042e-01
 5.25422042e-01
 5.37955112e-01
 5.37955112e-01
 5.54337472e-01
 5.54337472e-01
 5.78054673e-01
 5.78054673e-01
)
)
1
(
101
(
 6.55315676e-01
 6.55315676e-01
 6.55315676e-01
 6.55315676e-01
 6.55315676e-01
 6.55315676e-01
 5.73764093e-01
 5.73764093e-01
 5.73764093e-01
 5.73764093e-01
 5.73764093e-01
 5.73764093e-01
 5.73764093e-01
 5.73764093e-01
 5.73764093e-01
 5.73764093e-01
 5.73764093e-01
 5.73764093e-01
 5.73764093e-01
 5.73764093e-01
 5.73764093e-01
 5.73764093e-01
 5.73764093e-01
 5.73764093e-01
 5.73764093e-01
 5.73764093e-01
 5.73764093e-01
 5.73764093e-01
 5.73764093e-01
 5.73764093e-01
 5.73764093e-01
 5.73764093e-01
 5.73764093e-01
 5.73764093e-01
 5.73764093e-01
 5.73764093e-01
 5.73764093e-01
 5.73764093e-01
 5.73764093e-01
 5.73764093e-01
 5.73764093e-01
 5.73764093e-01
 3.76205536e-01
 3.76205536e-01
 3.76205536e-01
 3.76205536e-01
 3.76205536e-01
 3.76205536e-01
 3.76205536e-01
 3.76205536e-01
 3.76205536e-01
 3.76205536e-01
 3.76205536e-01
 3.76205536e-01
 3.76205536e-01
 4.09352404e-01
 4.09352404e-01
 4.09352404e-01
 4.09352404e-01
 4.09352404e-01
 4.09352404e-01
 4.09352404e-01
 4.09352404e-01
 4.44880900e-01
 4.44880900e-01
 4.44880900e-01
 4.44880900e-01
 4.44880900e-01
 4.44880900e-01
 4.44880900e-01
 4.44880900e-01
 4.44880900e-01
 4.44880900e-01
 4.44880900e-01
 4.44880900e-01
 4.44880900e-01
 4.44880900e-01
 4.76079599e-01
 4.76079599e-01
 4.76079599e-01
 4.76079599e-01
 4.76079599e-01
 4.76079599e-01
 4.76079599e-01
 4.76079599e-01
 4.76079599e-01
 4.76079599e-01
 4.99634687e-01
 4.99634687e-01
 4.99634687e-01
 4.99634687e-01
 5.11393497e-01
 5.11393497e-01
 5.38075764e-01
 5.38075764e-01
 5.38075764e-01
 5.37955112e-01
 5.37955112e-01
 5.54337472e-01
 5.54337472e-01
 5.78054673e-01
)
)
1
(
101
(
 6.25740565e-01
 6.25740565e-01
 6.25740565e-01
 5.73764093e-01
 5.73764093e-01
 5.73764093e-01
 5.73764093e-01
 5.73764093e-01
 5.73764093e-01
 5.73764093e-01
 5.73764093e-01
 5.73764093e-01
 5.73764093e-01
 5.73764093e-01
 5.73764093e-01
 5.73764093e-01
 5.73764093e-01
 5.73764093e-01
 5.73764093e-01
 5.73764093e-01
 5.73764093e-01
 5.73764093e-01
 5.73764093e-01
 5.73764093e-01
 5.73764093e-01
 5.73764093e-01
 5.73764093e-01
 5.73764093e-01
 5.73764093e-01
 5.73764093e-01
 5.73764093e-01
 5.73764093e-01
 5.73764093e-01
 5.73764093e-01
 5.73764093e-01
 5.73764093e-01
 5.73764093e-01
 5.73764093e-01
 5.73764093e-01
 5.73764093e-01
 5.73764093e-01
 3.49849029e-01
 3.76205536e-01
 3.76205536e-01
 3.76205536e-01
 3.76205536e-01
 3.76205536e-01
 3.76205536e-01
 3.76205536e-01
 3.76205536e-01
 3.76205536e-01
 3.76205536e-01
 3.76205536e-01
 3.76205536e-01
 3.76205536e-01
 3.76205536e-01
 4.09352404e-01
 4.09352404e-01
 4.09352404e-01
 4.09352404e-01
 4.09352404e-01
 4.09352404e-01
 4.09352404e-01
 4.09352404e-01
 4.09352404e-01
 4.44880900e-01
 4.44880900e-01
 4.44880900e-01
 4.44880900e-01
 4.44880900e-01
 4.44880900e-01
 4.44880900e-01
 4.44880900e-01
 4.44880900e-01
 4.44880900e-01
 4.44880900e-01
 4.44880900e-01
 4.44880900e-01
 4.76079599e-01
 4.76079599e-01
 4.76079599e-01
 4.76079599e-01
 4.76079599e-01
 4.76079599e-01
 4.76079599e-01
 4.76079599e-01
 4.76079599e-01
 4.76079599e-01
 4.99634687e-01
 4.99634687e-01
 4.99634687e-01
 4.99634687e-01
 5.11393497e-01
 5.11393497e-01
 5.38075764e-01
 5.38075764e-01
 5.38075764e-01
 5.38075764e-01
 5.37955112e-01
 5.54337472e-01
 5.54337472e-01
)
)
1
(
101
(
 6.06292883e-01
 6.06292883e-01
 5.73764093e-01
 5.73764093e-01
 5.73764093e-01
 5.73764093e-01
 5.73764093e-01
 5.73764093e-01
 5.73764093e-01
 5.73764093e-01
 5.73764093e-01
 5.73764093e-01
 5.73764093e-01
 5.73764093e-01
 5.73764093e-01
 5.73764093e-01
 5.73764093e-01
 5.73764093e-01
 5.73764093e-01
 5.73764093e-01
 5.73764093e-01
 5.73764093e-01
 5.73764093e-01
 5.73764093e-01
 5.73764093e-01
 5.73764093e-01
 5.73764093e-01
 5.73764093e-01
 5.73764093e-01
 5.73764093e-01
 5.73764093e-01
 5.73764093e-01
 5.73764093e-01
 5.73764093e-01
 5.73764093e-01
 5.73764093e-01
 5.73764093e-01
 5.73764093e-01
 5.73764093e-01
 5.73764093e-01
 5.73764093e-01
 3.49849029e-01
 3.49849029e-01
 3.76205536e-01
 3.76205536e-01
 3.76205536e-01
 3.76205536e-01
 3.76205536e-01
 3.76205536e-01
 3.76205536e-01
 3.76205536e-01
 3.76205536e-01
 3.76205536e-01
 3.76205536e-01
 3.76205536e-01
 3.76205536e-01
 3.76205536e-01
 4.09352404e-01
 4.09352404e-01
 4.09352404e-01
 4.09352404e-01
 4.09352404e-01
 4.09352404e-01
 4.09352404e-01
 4.09352404e-01
 4.09352404e-01
 4.44880900e-01
 4.44880900e-01
 4.44880900e-01
 4.44880900e-01
 4.44880900e-01
 4.44880900e-01
 4.44880900e-01
 4.44880900e-01
 4.44880900e-01
 4.44880900e-01
 4.44880900e-01
 4.44880900e-01
 4.44880900e-01
 4.44880900e-01
 4.76079599e-01
 4.76079599e-01
 4.76079599e-01
 4.76079599e-01
 4.76079599e-01
 4.76079599e-01
 4.76079599e-01
 4.76079599e-01
 4.87398517e-01
 4.99634687e-01
 4.99634687e-01
 4.99634687e-01
 5.31144867e-01
 5.31144867e-01
 5.31144867e-01
 5.38075764e-01
 5.38075764e-01
 5.38075764e-01
 5.38075764e-01
 5.38075764e-01
 5.54337472e-01
)
)
1
(
101
(
 5.88904398e-01
 5.73764093e-01
 5.73764093e-01
 5.73764093e-01
 5.73764093e-01
 5.73764093e-01
 5.73764093e-01
 5.73764093e-01
 5.73764093e-01
 5.73764093e-01
 5.73764093e-01
 5.73764093e-01
 5.73764093e-01
 5.73764093e-01
 5.73764093e-01
 5.73764093e-01
 5.73764093e-01
 5.73764093e-01
 5.73764093e-01
 5.73764093e-01
 5.73764093e-01
 5.73764093e-01
 5.73764093e-01
 5.73764093e-01
 5.73764093e-01
 5.73764093e-01
 5.73764093e-01
 5.73764093e-01
 5.73764093e-01
 5.73764093e-01
 5.73764093e-01
 5.73764093e-01
 5.73764093e-01
 5.73764093e-01
 5.73764093e-01
 5.73764093e-01
 5.73764093e-01
 5.73764093e-01
 5.73764093e-01
 5.73764093e-01
 3.49849029e-01
 3.49849029e-01
 3.49849029e-01
 3.49849029e-01
 3.76205536e-01
 3.76205536e-01
 3.76205536e-01
 3.76205536e-01
 3.76205536e-01
 3.76205536e-01
 3.76205536e-01
 3.76205536e-01
 3.76205536e-01
 3.76205536e-01
 3.76205536e-01
 3.76205536e-01
 3.76205536e-01
 3.76205536e-01
 4.09352404e-01
 4.09352404e-01
 4.09352404e-01
 4.09352404e-01
 4.09352404e-01
 4.09352404e-01
 4.09352404e-01
 4.09352404e-01
 4.09352404e-01
 4.09352404e-01
 4.44880900e-01
 4.44880900e-01
 4.44880900e-01
 4.44880900e-01
 4.44880900e-01
 4.44880900e-01
 4.44880900e-01
 4.44880900e-01
 4.44880900e-01
 4.44880900e-01
 4.44880900e-01
 4.44880900e-01
 4.44880900e-01
 4.62097984e-01
 4.76079599e-01
 4.76079599e-01
 4.76079599e-01
 4.76079599e-01
 4.76079599e-01
 4.76079599e-01
 4.76079599e-01
 4.87398517e-01
 4.87398517e-01
 4.97252264e-01
 4.97252264e-01
 5.31144867e-01
 5.31144867e-01
 5.31144867e-01
 5.31144867e-01
 5.38075764e-01
 5.38075764e-01
 5.38075764e-01
 5.38075764e-01
)
)
1
(
101
(
 5.88904398e-01
 5.60515246e-01
 5.60515246e-01
 5.60515246e-01
 5.60515246e-01
 5.60515246e-01
 5.60515246e-01
 5.60515246e-01
 5.60515246e-01
 5.60515246e-01
 5.60515246e-01
 5.60515246e-01
 5.60515246e-01
 5.60515246e-01
 5.60515246e-01
 5.60515246e-01
 5.60515246e-01
 5.60515246e-01
 5.60515246e-01
 5.60515246e-01
 5.60515246e-01
 5.60515246e-01
 5.60515246e-01
 5.60515246e-01
 5.60515246e-01
 5.60515246e-01
 5.60515246e-01
 5.60515246e-01
 5.60515246e-01
 5.60515246e-01
 5.60515246e-01
 5.60515246e-01
 5.60515246e-01
 5.60515246e-01
 5.60515246e-01
 5.60515246e-01
 5.60515246e-01
 5.60515246e-01
 5.60515246e-01
 5.60515246e-01
 3.49849029e-01
 3.49849029e-01
 3.49849029e-01
 3.49849029e-01
 3.49849029e-01
 3.76205536e-01
 3.76205536e-01
 3.76205536e-01
 3.76205536e-01
 3.76205536e-01
 3.76205536e-01
 3.76205536e-01
 3.76205536e-01
 3.76205536e-01
 3.76205536e-01
 3.76205536e-01
 3.76205536e-01
 3.76205536e-01
 3.76205536e-01
 4.09352404e-01
 4.09352404e-01
 4.09352404e-01
 4.09352404e-01
 4.09352404e-01
 4.09352404e-01
 4.09352404e-01
 4.09352404e-01
 4.09352404e-01
 4.09352404e-01
 4.44880900e-01
 4.44880900e-01
 4.44880900e-01
 4.44880900e-01
 4.44880900e-01
 4.44880900e-01
 4.44880900e-01
 4.44880900e-01
 4.44880900e-01
 4.44880900e-01
 4.44880900e-01
 4.44880900e-01
 4.44880900e-01
 4.62097984e-01
 4.62097984e-01
 4.76079599e-01
 4.76079599e-01
 4.76079599e-01
 4.76079599e-01
 4.76079599e-01
 4.87398517e-01
 4.87398517e-01
 4.87398517e-01
 4.97252264e-01
 4.97252264e-01
 5.31144867e-01
 5.31144867e-01
 5.31144867e-01
 5.31144867e-01
 5.31144867e-01
 5.38075764e-01
 5.38075764e-01
)
)
1
(
101
(
 5.38663008e-01
 5.38663008e-01
 5.38663008e-01
 5.38663008e-01
 5.38663008e-01
 5.38663008e-01
 5.38663008e-01
 5.38663008e-01
 5.38663008e-01
 5.38663008e-01
 5.38663008e-01
 5.38663008e-01
 5.38663008e-01
 5.38663008e-01
 5.38663008e-01
 5.38663008e-01
 5.38663008e-01
 5.38663008e-01
 5.38663008e-01
 5.38663008e-01
 5.38663008e-01
 5.38663008e-01
 5.38663008e-01
 5.38663008e-01
 5.38663008e-01
 5.38663008e-01
 5.38663008e-01
 5.38663008e-01
 5.38663008e-01
 5.38663008e-01
 5.38663008e-01
 5.38663008e-01
 5.38663008e-01
 5.38663008e-01
 5.38663008e-01
 5.38663008e-01
 5.38663008e-01
 5.38663008e-01
 5.38663008e-01
 5.38663008e-01
 3.49849029e-01
 3.49849029e-01
 3.49849029e-01
 3.49849029e-01
 3.49849029e-01
 3.49849029e-01
 3.76205536e-01
 3.76205536e-01
 3.76205536e-01
 3.76205536e-01
 3.76205536e-01
 3.76205536e-01
 3.76205536e-01
 3.76205536e-01
 3.76205536e-01
 3.76205536e-01
 3.76205536e-01
 3.76205536e-01
 3.76205536e-01
 3.76205536e-01
 3.76205536e-01
 4.09352404e-01
 4.09352404e-01
 4.09352404e-01
 4.09352404e-01
 4.09352404e-01
 4.09352404e-01
 4.09352404e-01
 4.09352404e-01
 4.09352404e-01
 4.09352404e-01
 4.44880900e-01
 4.44880900e-01
 4.44880900e-01
 4.44880900e-01
 4.44880900e-01
 4.44880900e-01
 4.44880900e-01
 4.44880900e-01
 4.44880900e-01
 4.44880900e-01
 4.44880900e-01
 4.44880900e-01
 4.62097984e-01
 4.62097984e-01
 4.62097984e-01
 4.76079599e-01
 4.76079599e-01
 4.76079599e-01
 4.76079599e-01
 4.87398517e-01
 4.87398517e-01
 4.87398517e-01
 4.97252264e-01
 4.97252264e-01
 5.31144867e-01
 5.31144867e-01
 5.31144867e-01
 5.31144867e-01
 5.31144867e-01
 5.31144867e-01
)
)
1
(
101
(
 5.20166206e-01
 5.20166206e-01
 5.20166206e-01
 5.20166206e-01
 5.20166206e-01
 5.20166206e-01
 5.20166206e-01
 5.20166206e-01
 5.20166206e-01
 5.20166206e-01
 5.20166206e-01
 5.20166206e-01
 5.20166206e-01
 5.20166206e-01
 5.20166206e-01
 5.20166206e-01
 5.20166206e-01
 5.20166206e-01
 5.20166206e-01
 5.20166206e-01
 5.20166206e-01
 5.20166206e-01
 5.20166206e-01
 5.20166206e-01
 5.20166206e-01
 5.20166206e-01
 5.20166206e-01
 5.20166206e-01
 5.20166206e-01
 5.20166206e-01
 5.20166206e-01
 5.20166206e-01
 5.20166206e-01
 5.20166206e-01
 5.20166206e-01
 5.20166206e-01
 5.20166206e-01
 5.20166206e-01
 5.20166206e-01
 3.49849029e-01
 3.49849029e-01
 3.49849029e-01
 3.49849029e-01
 3.49849029e-01
 3.49849029e-01
 3.49849029e-01
 3.49849029e-01
 3.49849029e-01
 3.76205536e-01
 3.76205536e-01
 3.76205536e-01
 3.76205536e-01
 3.76205536e-01
 3.76205536e-01
 3.76205536e-01
 3.76205536e-01
 3.76205536e-01
 3.76205536e-01
 3.76205536e-01
 3.76205536e-01
 3.76205536e-01
 3.76205536e-01
 4.09352404e-01
 4.09352404e-01
 4.09352404e-01
 4.09352404e-01
 4.09352404e-01
 4.09352404e-01
 4.09352404e-01
 4.09352404e-01
 4.09352404e-01
 4.09352404e-01
 4.44880900e-01
 4.44880900e-01
 4.44880900e-01
 4.44880900e-01
 4.44880900e-01
 4.44880900e-01
 4.44880900e-01
 4.44880900e-01
 4.44880900e-01
 4.44880900e-01
 4.44880900e-01
 4.44880900e-01
 4.62097984e-01
 4.62097984e-01
 4.62097984e-01
 4.62097984e-01
 4.70123450e-01
 4.70123450e-01
 4.70123450e-01
 4.87398517e-01
 4.87398517e-01
 4.87398517e-01
 4.97252264e-01
 4.97252264e-01
 5.31144867e-01
 5.31144867e-01
 5.31144867e-01