/*--------------------------------*- C++ -*----------------------------------*\
| =========                 |                                                 |
| \\      /  F ield        | OpenFOAM: The Open Source CFD Toolbox           |
|  \\    /   O peration    | Version:  7                                     |
|   \\  /    A nd          | Web:      http://www.OpenFOAM.com               |
|    \\/     M anipulation |                                                 |
\*---------------------------------------------------------------------------*/

FoamFile
{
    version     2.0;
    format      ascii;
    class       dictionary;
    object      T_table;
}

T_table
2
(
101
(
1
(
101
(
 3.00405814e+02
 3.00405814e+02
 3.00405814e+02
 3.00405814e+02
 3.00405814e+02
 3.00405814e+02
 3.00405814e+02
 3.00405814e+02
 3.00405814e+02
 3.00405814e+02
 3.00405814e+02
 3.00405814e+02
 3.00405814e+02
 3.00405814e+02
 3.00405814e+02
 3.00405814e+02
 3.00405814e+02
 3.00405814e+02
 3.00405814e+02
 3.00405814e+02
 3.00405814e+02
 3.00405814e+02
 3.00405814e+02
 3.00405814e+02
 3.00405814e+02
 3.00405814e+02
 3.00405814e+02
 3.00405814e+02
 3.00405814e+02
 3.00405814e+02
 3.00405814e+02
 3.00405814e+02
 3.00405814e+02
 3.00405814e+02
 3.00405814e+02
 3.00405814e+02
 3.00405814e+02
 3.00405814e+02
 3.00405814e+02
 3.00405814e+02
 3.00405814e+02
 3.00405814e+02
 3.00405814e+02
 3.00405814e+02
 3.00405814e+02
 5.16778409e+02
 5.16778409e+02
 4.67365850e+02
 4.67365850e+02
 4.67365850e+02
 4.67365850e+02
 4.67365850e+02
 4.67365850e+02
 4.67365850e+02
 4.67365850e+02
 4.67365850e+02
 4.67365850e+02
 4.67365850e+02
 4.67365850e+02
 4.67365850e+02
 4.67365850e+02
 4.67365850e+02
 4.67365850e+02
 4.29776349e+02
 4.29776349e+02
 4.29776349e+02
 4.29776349e+02
 4.29776349e+02
 4.29776349e+02
 4.29776349e+02
 4.29776349e+02
 4.29776349e+02
 4.29776349e+02
 4.29776349e+02
 4.29776349e+02
 3.80451483e+02
 3.80451483e+02
 3.80451483e+02
 3.80451483e+02
 3.80451483e+02
 3.80451483e+02
 3.80451483e+02
 3.57549880e+02
 3.57549880e+02
 3.57549880e+02
 3.57549880e+02
 3.57549880e+02
 3.57549880e+02
 3.34943120e+02
 3.34943120e+02
 3.34943120e+02
 3.34943120e+02
 3.34943120e+02
 3.34943120e+02
 3.34943120e+02
 3.08787932e+02
 3.08787932e+02
 3.08787932e+02
 3.08787932e+02
 3.08787932e+02
 3.00133053e+02
)
)
1
(
101
(
 3.17512886e+02
 3.17512886e+02
 3.17512886e+02
 3.17512886e+02
 3.17512886e+02
 3.17512886e+02
 3.17512886e+02
 3.17512886e+02
 3.17512886e+02
 3.17512886e+02
 3.17512886e+02
 3.17512886e+02
 3.17512886e+02
 3.17512886e+02
 3.17512886e+02
 3.17512886e+02
 3.17512886e+02
 3.17512886e+02
 3.17512886e+02
 3.17512886e+02
 3.17512886e+02
 3.17512886e+02
 3.17512886e+02
 3.17512886e+02
 3.17512886e+02
 3.17512886e+02
 3.17512886e+02
 3.17512886e+02
 3.17512886e+02
 3.17512886e+02
 3.17512886e+02
 3.17512886e+02
 3.17512886e+02
 3.17512886e+02
 3.17512886e+02
 3.17512886e+02
 3.17512886e+02
 3.17512886e+02
 3.17512886e+02
 3.17512886e+02
 3.17512886e+02
 3.17512886e+02
 3.17512886e+02
 3.17512886e+02
 3.17512886e+02
 5.16778409e+02
 5.16778409e+02
 5.16778409e+02
 4.67365850e+02
 4.67365850e+02
 4.67365850e+02
 4.67365850e+02
 4.67365850e+02
 4.67365850e+02
 4.67365850e+02
 4.67365850e+02
 4.67365850e+02
 4.67365850e+02
 4.67365850e+02
 4.67365850e+02
 4.67365850e+02
 4.67365850e+02
 4.67365850e+02
 4.67365850e+02
 4.67365850e+02
 4.29776349e+02
 4.29776349e+02
 4.29776349e+02
 4.29776349e+02
 4.29776349e+02
 4.29776349e+02
 4.29776349e+02
 4.29776349e+02
 4.29776349e+02
 4.29776349e+02
 4.29776349e+02
 4.29776349e+02
 3.80451483e+02
 3.80451483e+02
 3.80451483e+02
 3.80451483e+02
 3.80451483e+02
 3.80451483e+02
 3.57549880e+02
 3.57549880e+02
 3.57549880e+02
 3.57549880e+02
 3.57549880e+02
 3.57549880e+02
 3.57549880e+02
 3.34943120e+02
 3.34943120e+02
 3.34943120e+02
 3.34943120e+02
 3.34943120e+02
 3.34943120e+02
 3.23137145e+02
 3.08787932e+02
 3.08787932e+02
 3.08787932e+02
 3.04690788e+02
)
)
1
(
101
(
 3.38214107e+02
 3.38214107e+02
 3.38214107e+02
 3.38214107e+02
 3.38214107e+02
 3.38214107e+02
 3.38214107e+02
 3.38214107e+02
 3.38214107e+02
 3.38214107e+02
 3.38214107e+02
 3.38214107e+02
 3.38214107e+02
 3.38214107e+02
 3.38214107e+02
 3.38214107e+02
 3.38214107e+02
 3.38214107e+02
 3.38214107e+02
 3.38214107e+02
 3.38214107e+02
 3.38214107e+02
 3.38214107e+02
 3.38214107e+02
 3.38214107e+02
 3.38214107e+02
 3.38214107e+02
 3.38214107e+02
 3.38214107e+02
 3.38214107e+02
 3.38214107e+02
 3.38214107e+02
 3.38214107e+02
 3.38214107e+02
 3.38214107e+02
 3.38214107e+02
 3.38214107e+02
 3.38214107e+02
 3.38214107e+02
 3.38214107e+02
 3.38214107e+02
 3.38214107e+02
 3.38214107e+02
 3.38214107e+02
 5.16778409e+02
 5.16778409e+02
 5.16778409e+02
 5.16778409e+02
 5.16778409e+02
 5.16778409e+02
 4.67365850e+02
 4.67365850e+02
 4.67365850e+02
 4.67365850e+02
 4.67365850e+02
 4.67365850e+02
 4.67365850e+02
 4.67365850e+02
 4.67365850e+02
 4.67365850e+02
 4.67365850e+02
 4.67365850e+02
 4.67365850e+02
 4.67365850e+02
 4.67365850e+02
 4.67365850e+02
 4.29776349e+02
 4.29776349e+02
 4.29776349e+02
 4.29776349e+02
 4.29776349e+02
 4.29776349e+02
 4.29776349e+02
 4.29776349e+02
 4.29776349e+02
 4.29776349e+02
 4.29776349e+02
 4.29776349e+02
 3.80451483e+02
 3.80451483e+02
 3.80451483e+02
 3.80451483e+02
 3.80451483e+02
 3.80451483e+02
 3.80451483e+02
 3.57549880e+02
 3.57549880e+02
 3.57549880e+02
 3.57549880e+02
 3.57549880e+02
 3.57549880e+02
 3.34943120e+02
 3.34943120e+02
 3.34943120e+02
 3.34943120e+02
 3.34943120e+02
 3.34943120e+02
 3.23137145e+02
 3.23137145e+02
 3.13567546e+02
 3.13567546e+02
)
)
1
(
101
(
 3.58832822e+02
 3.58832822e+02
 3.58832822e+02
 3.58832822e+02
 3.58832822e+02
 3.58832822e+02
 3.58832822e+02
 3.58832822e+02
 3.58832822e+02
 3.58832822e+02
 3.58832822e+02
 3.58832822e+02
 3.58832822e+02
 3.58832822e+02
 3.58832822e+02
 3.58832822e+02
 3.58832822e+02
 3.58832822e+02
 3.58832822e+02
 3.58832822e+02
 3.58832822e+02
 3.58832822e+02
 3.58832822e+02
 3.58832822e+02
 3.58832822e+02
 3.58832822e+02
 3.58832822e+02
 3.58832822e+02
 3.58832822e+02
 3.58832822e+02
 3.58832822e+02
 3.58832822e+02
 3.58832822e+02
 3.58832822e+02
 3.58832822e+02
 3.58832822e+02
 3.58832822e+02
 3.58832822e+02
 3.58832822e+02
 3.58832822e+02
 3.58832822e+02
 3.58832822e+02
 3.58832822e+02
 3.58832822e+02
 5.77682647e+02
 5.16778409e+02
 5.16778409e+02
 5.16778409e+02
 5.16778409e+02
 5.16778409e+02
 5.16778409e+02
 4.67365850e+02
 4.67365850e+02
 4.67365850e+02
 4.67365850e+02
 4.67365850e+02
 4.67365850e+02
 4.67365850e+02
 4.67365850e+02
 4.67365850e+02
 4.67365850e+02
 4.67365850e+02
 4.67365850e+02
 4.67365850e+02
 4.67365850e+02
 4.67365850e+02
 4.67365850e+02
 4.29776349e+02
 4.29776349e+02
 4.29776349e+02
 4.29776349e+02
 4.29776349e+02
 4.29776349e+02
 4.29776349e+02
 4.29776349e+02
 4.29776349e+02
 4.29776349e+02
 4.29776349e+02
 4.29776349e+02
 4.03551836e+02
 3.80451483e+02
 3.80451483e+02
 3.80451483e+02
 3.80451483e+02
 3.80451483e+02
 3.80451483e+02
 3.57549880e+02
 3.57549880e+02
 3.57549880e+02
 3.57549880e+02
 3.57549880e+02
 3.57549880e+02
 3.57549880e+02
 3.34943120e+02
 3.34943120e+02
 3.34943120e+02
 3.34943120e+02
 3.34943120e+02
 3.23137145e+02
 3.14517628e+02
 3.14517628e+02
)
)
1
(
101
(
 3.80517360e+02
 3.80517360e+02
 3.80517360e+02
 3.80517360e+02
 3.80517360e+02
 3.80517360e+02
 3.80517360e+02
 3.80517360e+02
 3.80517360e+02
 3.80517360e+02
 3.80517360e+02
 3.80517360e+02
 3.80517360e+02
 3.80517360e+02
 3.80517360e+02
 3.80517360e+02
 3.80517360e+02
 3.80517360e+02
 3.80517360e+02
 3.80517360e+02
 3.80517360e+02
 3.80517360e+02
 3.80517360e+02
 3.80517360e+02
 3.80517360e+02
 3.80517360e+02
 3.80517360e+02
 3.80517360e+02
 3.80517360e+02
 3.80517360e+02
 3.80517360e+02
 3.80517360e+02
 3.80517360e+02
 3.80517360e+02
 3.80517360e+02
 3.80517360e+02
 3.80517360e+02
 3.80517360e+02
 3.80517360e+02
 3.80517360e+02
 3.80517360e+02
 3.80517360e+02
 3.80517360e+02
 3.80517360e+02
 5.77682647e+02
 5.77682647e+02
 5.77682647e+02
 5.16778409e+02
 5.16778409e+02
 5.16778409e+02
 5.16778409e+02
 5.16778409e+02
 5.16778409e+02
 4.67365850e+02
 4.67365850e+02
 4.67365850e+02
 4.67365850e+02
 4.67365850e+02
 4.67365850e+02
 4.67365850e+02
 4.67365850e+02
 4.67365850e+02
 4.67365850e+02
 4.67365850e+02
 4.67365850e+02
 4.67365850e+02
 4.67365850e+02
 4.67365850e+02
 4.29776349e+02
 4.29776349e+02
 4.29776349e+02
 4.29776349e+02
 4.29776349e+02
 4.29776349e+02
 4.29776349e+02
 4.29776349e+02
 4.29776349e+02
 4.29776349e+02
 4.29776349e+02
 4.29776349e+02
 4.03551836e+02
 3.80451483e+02
 3.80451483e+02
 3.80451483e+02
 3.80451483e+02
 3.80451483e+02
 3.80451483e+02
 3.80451483e+02
 3.57549880e+02
 3.57549880e+02
 3.57549880e+02
 3.57549880e+02
 3.57549880e+02
 3.57549880e+02
 3.44295070e+02
 3.34943120e+02
 3.34943120e+02
 3.34943120e+02
 3.26320268e+02
 3.26320268e+02
 3.14517628e+02
)
)
1
(
101
(
 4.00930484e+02
 4.00930484e+02
 4.00930484e+02
 4.00930484e+02
 4.00930484e+02
 4.00930484e+02
 4.00930484e+02
 4.00930484e+02
 4.00930484e+02
 4.00930484e+02
 4.00930484e+02
 4.00930484e+02
 4.00930484e+02
 4.00930484e+02
 4.00930484e+02
 4.00930484e+02
 4.00930484e+02
 4.00930484e+02
 4.00930484e+02
 4.00930484e+02
 4.00930484e+02
 4.00930484e+02
 4.00930484e+02
 4.00930484e+02
 4.00930484e+02
 4.00930484e+02
 4.00930484e+02
 4.00930484e+02
 4.00930484e+02
 4.00930484e+02
 4.00930484e+02
 4.00930484e+02
 4.00930484e+02
 4.00930484e+02
 4.00930484e+02
 4.00930484e+02
 4.00930484e+02
 4.00930484e+02
 4.00930484e+02
 4.00930484e+02
 4.00930484e+02
 4.00930484e+02
 6.05740590e+02
 5.77682647e+02
 5.77682647e+02
 5.77682647e+02
 5.77682647e+02
 5.77682647e+02
 5.16778409e+02
 5.16778409e+02
 5.16778409e+02
 5.16778409e+02
 5.16778409e+02
 5.16778409e+02
 4.67365850e+02
 4.67365850e+02
 4.67365850e+02
 4.67365850e+02
 4.67365850e+02
 4.67365850e+02
 4.67365850e+02
 4.67365850e+02
 4.67365850e+02
 4.67365850e+02
 4.67365850e+02
 4.67365850e+02
 4.67365850e+02
 4.67365850e+02
 4.67365850e+02
 4.67365850e+02
 4.29776349e+02
 4.29776349e+02
 4.29776349e+02
 4.29776349e+02
 4.29776349e+02
 4.29776349e+02
 4.29776349e+02
 4.29776349e+02
 4.29776349e+02
 4.29776349e+02
 4.29776349e+02
 4.03551836e+02
 4.03551836e+02
 3.80451483e+02
 3.80451483e+02
 3.80451483e+02
 3.80451483e+02
 3.80451483e+02
 3.80451483e+02
 3.57549880e+02
 3.57549880e+02
 3.57549880e+02
 3.57549880e+02
 3.57549880e+02
 3.57549880e+02
 3.44295070e+02
 3.44295070e+02
 3.34636519e+02
 3.34636519e+02
 3.26320268e+02
 3.26320268e+02
)
)
1
(
101
(
 4.21620063e+02
 4.21620063e+02
 4.21620063e+02
 4.21620063e+02
 4.21620063e+02
 4.21620063e+02
 4.21620063e+02
 4.21620063e+02
 4.21620063e+02
 4.21620063e+02
 4.21620063e+02
 4.21620063e+02
 4.21620063e+02
 4.21620063e+02
 4.21620063e+02
 4.21620063e+02
 4.21620063e+02
 4.21620063e+02
 4.21620063e+02
 4.21620063e+02
 4.21620063e+02
 4.21620063e+02
 4.21620063e+02
 4.21620063e+02
 4.21620063e+02
 4.21620063e+02
 4.21620063e+02
 4.21620063e+02
 4.21620063e+02
 4.21620063e+02
 4.21620063e+02
 4.21620063e+02
 4.21620063e+02
 6.05740590e+02
 6.05740590e+02
 6.05740590e+02
 6.05740590e+02
 6.05740590e+02
 6.05740590e+02
 6.05740590e+02
 6.05740590e+02
 6.05740590e+02
 6.05740590e+02
 5.77682647e+02
 5.77682647e+02
 5.77682647e+02
 5.77682647e+02
 5.77682647e+02
 5.77682647e+02
 5.16778409e+02
 5.16778409e+02
 5.16778409e+02
 5.16778409e+02
 5.16778409e+02
 5.16778409e+02
 5.16778409e+02
 4.67365850e+02
 4.67365850e+02
 4.67365850e+02
 4.67365850e+02
 4.67365850e+02
 4.67365850e+02
 4.67365850e+02
 4.67365850e+02
 4.67365850e+02
 4.67365850e+02
 4.67365850e+02
 4.67365850e+02
 4.67365850e+02
 4.67365850e+02
 4.67365850e+02
 4.29776349e+02
 4.29776349e+02
 4.29776349e+02
 4.29776349e+02
 4.29776349e+02
 4.29776349e+02
 4.29776349e+02
 4.29776349e+02
 4.29776349e+02
 4.29776349e+02
 4.29776349e+02
 4.03551836e+02
 4.03551836e+02
 3.80451483e+02
 3.80451483e+02
 3.80451483e+02
 3.80451483e+02
 3.80451483e+02
 3.80451483e+02
 3.80451483e+02
 3.57549880e+02
 3.57549880e+02
 3.57549880e+02
 3.57549880e+02
 3.57549880e+02
 3.44295070e+02
 3.44295070e+02
 3.34636519e+02
 3.34636519e+02
 3.26320268e+02
)
)
1
(
101
(
 4.43729313e+02
 4.43729313e+02
 4.43729313e+02
 4.43729313e+02
 4.43729313e+02
 4.43729313e+02
 4.43729313e+02
 4.43729313e+02
 4.43729313e+02
 4.43729313e+02
 4.43729313e+02
 4.43729313e+02
 4.43729313e+02
 4.43729313e+02
 4.43729313e+02
 4.43729313e+02
 4.43729313e+02
 4.43729313e+02
 4.43729313e+02
 4.43729313e+02
 4.43729313e+02
 4.43729313e+02
 4.43729313e+02
 4.43729313e+02
 4.43729313e+02
 4.43729313e+02
 6.05740590e+02
 6.05740590e+02
 6.05740590e+02
 6.05740590e+02
 6.05740590e+02
 6.05740590e+02
 6.05740590e+02
 6.05740590e+02
 6.05740590e+02
 6.05740590e+02
 6.05740590e+02
 6.05740590e+02
 6.05740590e+02
 6.05740590e+02
 6.05740590e+02
 6.05740590e+02
 6.05740590e+02
 5.77682647e+02
 5.77682647e+02
 5.77682647e+02
 5.77682647e+02
 5.77682647e+02
 5.77682647e+02
 5.77682647e+02
 5.16778409e+02
 5.16778409e+02
 5.16778409e+02
 5.16778409e+02
 5.16778409e+02
 5.16778409e+02
 5.16778409e+02
 4.67365850e+02
 4.67365850e+02
 4.67365850e+02
 4.67365850e+02
 4.67365850e+02
 4.67365850e+02
 4.67365850e+02
 4.67365850e+02
 4.67365850e+02
 4.67365850e+02
 4.67365850e+02
 4.67365850e+02
 4.67365850e+02
 4.67365850e+02
 4.67365850e+02
 4.29776349e+02
 4.29776349e+02
 4.29776349e+02
 4.29776349e+02
 4.29776349e+02
 4.29776349e+02
 4.29776349e+02
 4.29776349e+02
 4.29776349e+02
 4.29776349e+02
 4.29776349e+02
 4.03551836e+02
 4.03551836e+02
 4.03551836e+02
 3.80451483e+02
 3.80451483e+02
 3.80451483e+02
 3.80451483e+02
 3.80451483e+02
 3.80451483e+02
 3.70102245e+02
 3.57549880e+02
 3.57549880e+02
 3.57549880e+02
 3.42738161e+02
 3.42738161e+02
 3.42738161e+02
 3.34636519e+02
 3.34636519e+02
)
)
1
(
101
(
 4.65802333e+02
 4.65802333e+02
 4.65802333e+02
 4.65802333e+02
 4.65802333e+02
 4.65802333e+02
 4.65802333e+02
 4.65802333e+02
 4.65802333e+02
 4.65802333e+02
 4.65802333e+02
 4.65802333e+02
 4.65802333e+02
 4.65802333e+02
 4.65802333e+02
 4.65802333e+02
 4.65802333e+02
 4.65802333e+02
 4.65802333e+02
 6.05740590e+02
 6.05740590e+02
 6.05740590e+02
 6.05740590e+02
 6.05740590e+02
 6.05740590e+02
 6.05740590e+02
 6.05740590e+02
 6.05740590e+02
 6.05740590e+02
 6.05740590e+02
 6.05740590e+02
 6.05740590e+02
 6.05740590e+02
 6.05740590e+02
 6.05740590e+02
 6.05740590e+02
 6.05740590e+02
 6.05740590e+02
 6.05740590e+02
 6.05740590e+02
 6.05740590e+02
 6.05740590e+02
 5.77682647e+02
 5.77682647e+02
 5.77682647e+02
 5.77682647e+02
 5.77682647e+02
 5.77682647e+02
 5.77682647e+02
 5.77682647e+02
 5.77682647e+02
 5.16778409e+02
 5.16778409e+02
 5.16778409e+02
 5.16778409e+02
 5.16778409e+02
 5.16778409e+02
 5.16778409e+02
 5.16778409e+02
 4.67365850e+02
 4.67365850e+02
 4.67365850e+02
 4.67365850e+02
 4.67365850e+02
 4.67365850e+02
 4.67365850e+02
 4.67365850e+02
 4.67365850e+02
 4.67365850e+02
 4.67365850e+02
 4.67365850e+02
 4.67365850e+02
 4.67365850e+02
 4.29776349e+02
 4.29776349e+02
 4.29776349e+02
 4.29776349e+02
 4.29776349e+02
 4.29776349e+02
 4.29776349e+02
 4.29776349e+02
 4.29776349e+02
 4.29776349e+02
 4.29776349e+02
 4.03551836e+02
 4.03551836e+02
 4.03551836e+02
 3.80451483e+02
 3.80451483e+02
 3.80451483e+02
 3.80451483e+02
 3.80451483e+02
 3.80451483e+02
 3.70102245e+02
 3.70102245e+02
 3.57653015e+02
 3.57653015e+02
 3.42738161e+02
 3.42738161e+02
 3.42738161e+02
 3.42738161e+02
)
)
1
(
101
(
 4.87553449e+02
 4.87553449e+02
 4.87553449e+02
 4.87553449e+02
 4.87553449e+02
 4.87553449e+02
 4.87553449e+02
 4.87553449e+02
 4.87553449e+02
 4.87553449e+02
 4.87553449e+02
 4.87553449e+02
 4.87553449e+02
 4.87553449e+02
 6.05740590e+02
 6.05740590e+02
 6.05740590e+02
 6.05740590e+02
 6.05740590e+02
 6.05740590e+02
 6.05740590e+02
 6.05740590e+02
 6.05740590e+02
 6.05740590e+02
 6.05740590e+02
 6.05740590e+02
 6.05740590e+02
 6.05740590e+02
 6.05740590e+02
 6.05740590e+02
 6.05740590e+02
 6.05740590e+02
 6.05740590e+02
 6.05740590e+02
 6.05740590e+02
 6.05740590e+02
 6.05740590e+02
 6.05740590e+02
 6.05740590e+02
 6.05740590e+02
 6.05740590e+02
 6.05740590e+02
 5.77682647e+02
 5.77682647e+02
 5.77682647e+02
 5.77682647e+02
 5.77682647e+02
 5.77682647e+02
 5.77682647e+02
 5.77682647e+02
 5.77682647e+02
 5.77682647e+02
 5.16778409e+02
 5.16778409e+02
 5.16778409e+02
 5.16778409e+02
 5.16778409e+02
 5.16778409e+02
 5.16778409e+02
 5.16778409e+02
 4.67365850e+02
 4.67365850e+02
 4.67365850e+02
 4.67365850e+02
 4.67365850e+02
 4.67365850e+02
 4.67365850e+02
 4.67365850e+02
 4.67365850e+02
 4.67365850e+02
 4.67365850e+02
 4.67365850e+02
 4.67365850e+02
 4.67365850e+02
 4.67365850e+02
 4.29776349e+02
 4.29776349e+02
 4.29776349e+02
 4.29776349e+02
 4.29776349e+02
 4.29776349e+02
 4.29776349e+02
 4.29776349e+02
 4.29776349e+02
 4.29776349e+02
 4.03551836e+02
 4.03551836e+02
 4.03551836e+02
 4.03551836e+02
 3.80451483e+02
 3.80451483e+02
 3.80451483e+02
 3.80451483e+02
 3.80451483e+02
 3.70102245e+02
 3.70102245e+02
 3.57653015e+02
 3.57653015e+02
 3.42738161e+02
 3.42738161e+02
 3.42738161e+02
)
)
1
(
101
(
 5.10501016e+02
 5.10501016e+02
 5.10501016e+02
 5.10501016e+02
 5.10501016e+02
 5.10501016e+02
 5.10501016e+02
 5.10501016e+02
 5.10501016e+02
 6.05740590e+02
 6.05740590e+02
 6.05740590e+02
 6.05740590e+02
 6.05740590e+02
 6.05740590e+02
 6.05740590e+02
 6.05740590e+02
 6.05740590e+02
 6.05740590e+02
 6.05740590e+02
 6.05740590e+02
 6.05740590e+02
 6.05740590e+02
 6.05740590e+02
 6.05740590e+02
 6.05740590e+02
 6.05740590e+02
 6.05740590e+02
 6.05740590e+02
 6.05740590e+02
 6.05740590e+02
 6.05740590e+02
 6.05740590e+02
 6.05740590e+02
 6.05740590e+02
 6.05740590e+02
 6.05740590e+02
 6.05740590e+02
 6.05740590e+02
 6.05740590e+02
 6.05740590e+02
 6.05740590e+02
 5.77682647e+02
 5.77682647e+02
 5.77682647e+02
 5.77682647e+02
 5.77682647e+02
 5.77682647e+02
 5.77682647e+02
 5.77682647e+02
 5.77682647e+02
 5.77682647e+02
 5.77682647e+02
 5.77682647e+02
 5.16778409e+02
 5.16778409e+02
 5.16778409e+02
 5.16778409e+02
 5.16778409e+02
 5.16778409e+02
 5.16778409e+02
 5.16778409e+02
 4.67365850e+02
 4.67365850e+02
 4.67365850e+02
 4.67365850e+02
 4.67365850e+02
 4.67365850e+02
 4.67365850e+02
 4.67365850e+02
 4.67365850e+02
 4.67365850e+02
 4.67365850e+02
 4.67365850e+02
 4.67365850e+02
 4.67365850e+02
 4.29776349e+02
 4.29776349e+02
 4.29776349e+02
 4.29776349e+02
 4.29776349e+02
 4.29776349e+02
 4.29776349e+02
 4.29776349e+02
 4.29776349e+02
 4.29776349e+02
 4.03551836e+02
 4.03551836e+02
 4.03551836e+02
 4.03551836e+02
 3.92459187e+02
 3.80451483e+02
 3.80451483e+02
 3.80451483e+02
 3.80451483e+02
 3.70102245e+02
 3.70102245e+02
 3.57653015e+02
 3.57653015e+02
 3.42738161e+02
 3.42738161e+02
)
)
1
(
101
(
 5.31852255e+02
 5.31852255e+02
 5.31852255e+02
 5.31852255e+02
 5.31852255e+02
 5.31852255e+02
 6.05740590e+02
 6.05740590e+02
 6.05740590e+02
 6.05740590e+02
 6.05740590e+02
 6.05740590e+02
 6.05740590e+02
 6.05740590e+02
 6.05740590e+02
 6.05740590e+02
 6.05740590e+02
 6.05740590e+02
 6.05740590e+02
 6.05740590e+02
 6.05740590e+02
 6.05740590e+02
 6.05740590e+02
 6.05740590e+02
 6.05740590e+02
 6.05740590e+02
 6.05740590e+02
 6.05740590e+02
 6.05740590e+02
 6.05740590e+02
 6.05740590e+02
 6.05740590e+02
 6.05740590e+02
 6.05740590e+02
 6.05740590e+02
 6.05740590e+02
 6.05740590e+02
 6.05740590e+02
 6.05740590e+02
 6.05740590e+02
 6.05740590e+02
 6.05740590e+02
 5.77682647e+02
 5.77682647e+02
 5.77682647e+02
 5.77682647e+02
 5.77682647e+02
 5.77682647e+02
 5.77682647e+02
 5.77682647e+02
 5.77682647e+02
 5.77682647e+02
 5.77682647e+02
 5.77682647e+02
 5.77682647e+02
 5.16778409e+02
 5.16778409e+02
 5.16778409e+02
 5.16778409e+02
 5.16778409e+02
 5.16778409e+02
 5.16778409e+02
 5.16778409e+02
 4.67365850e+02
 4.67365850e+02
 4.67365850e+02
 4.67365850e+02
 4.67365850e+02
 4.67365850e+02
 4.67365850e+02
 4.67365850e+02
 4.67365850e+02
 4.67365850e+02
 4.67365850e+02
 4.67365850e+02
 4.67365850e+02
 4.67365850e+02
 4.29776349e+02
 4.29776349e+02
 4.29776349e+02
 4.29776349e+02
 4.29776349e+02
 4.29776349e+02
 4.29776349e+02
 4.29776349e+02
 4.29776349e+02
 4.29776349e+02
 4.03551836e+02
 4.03551836e+02
 4.03551836e+02
 4.03551836e+02
 3.92459187e+02
 3.92459187e+02
 3.72395264e+02
 3.72395264e+02
 3.72395264e+02
 3.70102245e+02
 3.70102245e+02
 3.57653015e+02
 3.57653015e+02
 3.42738161e+02
)
)
1
(
101
(
 5.56421226e+02
 5.56421226e+02
 5.56421226e+02
 6.05740590e+02
 6.05740590e+02
 6.05740590e+02
 6.05740590e+02
 6.05740590e+02
 6.05740590e+02
 6.05740590e+02
 6.05740590e+02
 6.05740590e+02
 6.05740590e+02
 6.05740590e+02
 6.05740590e+02
 6.05740590e+02
 6.05740590e+02
 6.05740590e+02
 6.05740590e+02
 6.05740590e+02
 6.05740590e+02
 6.05740590e+02
 6.05740590e+02
 6.05740590e+02
 6.05740590e+02
 6.05740590e+02
 6.05740590e+02
 6.05740590e+02
 6.05740590e+02
 6.05740590e+02
 6.05740590e+02
 6.05740590e+02
 6.05740590e+02
 6.05740590e+02
 6.05740590e+02
 6.05740590e+02
 6.05740590e+02
 6.05740590e+02
 6.05740590e+02
 6.05740590e+02
 6.05740590e+02
 6.38144907e+02
 5.77682647e+02
 5.77682647e+02
 5.77682647e+02
 5.77682647e+02
 5.77682647e+02
 5.77682647e+02
 5.77682647e+02
 5.77682647e+02
 5.77682647e+02
 5.77682647e+02
 5.77682647e+02
 5.77682647e+02
 5.77682647e+02
 5.77682647e+02
 5.16778409e+02
 5.16778409e+02
 5.16778409e+02
 5.16778409e+02
 5.16778409e+02
 5.16778409e+02
 5.16778409e+02
 5.16778409e+02
 5.16778409e+02
 4.67365850e+02
 4.67365850e+02
 4.67365850e+02
 4.67365850e+02
 4.67365850e+02
 4.67365850e+02
 4.67365850e+02
 4.67365850e+02
 4.67365850e+02
 4.67365850e+02
 4.67365850e+02
 4.67365850e+02
 4.67365850e+02
 4.29776349e+02
 4.29776349e+02
 4.29776349e+02
 4.29776349e+02
 4.29776349e+02
 4.29776349e+02
 4.29776349e+02
 4.29776349e+02
 4.29776349e+02
 4.29776349e+02
 4.03551836e+02
 4.03551836e+02
 4.03551836e+02
 4.03551836e+02
 3.92459187e+02
 3.92459187e+02
 3.72395264e+02
 3.72395264e+02
 3.72395264e+02
 3.72395264e+02
 3.70102245e+02
 3.57653015e+02
 3.57653015e+02
)
)
1
(
101
(
 5.74126031e+02
 5.74126031e+02
 6.05740590e+02
 6.05740590e+02
 6.05740590e+02
 6.05740590e+02
 6.05740590e+02
 6.05740590e+02
 6.05740590e+02
 6.05740590e+02
 6.05740590e+02
 6.05740590e+02
 6.05740590e+02
 6.05740590e+02
 6.05740590e+02
 6.05740590e+02
 6.05740590e+02
 6.05740590e+02
 6.05740590e+02
 6.05740590e+02
 6.05740590e+02
 6.05740590e+02
 6.05740590e+02
 6.05740590e+02
 6.05740590e+02
 6.05740590e+02
 6.05740590e+02
 6.05740590e+02
 6.05740590e+02
 6.05740590e+02
 6.05740590e+02
 6.05740590e+02
 6.05740590e+02
 6.05740590e+02
 6.05740590e+02
 6.05740590e+02
 6.05740590e+02
 6.05740590e+02
 6.05740590e+02
 6.05740590e+02
 6.05740590e+02
 6.38144907e+02
 6.38144907e+02
 5.77682647e+02
 5.77682647e+02
 5.77682647e+02
 5.77682647e+02
 5.77682647e+02
 5.77682647e+02
 5.77682647e+02
 5.77682647e+02
 5.77682647e+02
 5.77682647e+02
 5.77682647e+02
 5.77682647e+02
 5.77682647e+02
 5.77682647e+02
 5.16778409e+02
 5.16778409e+02
 5.16778409e+02
 5.16778409e+02
 5.16778409e+02
 5.16778409e+02
 5.16778409e+02
 5.16778409e+02
 5.16778409e+02
 4.67365850e+02
 4.67365850e+02
 4.67365850e+02
 4.67365850e+02
 4.67365850e+02
 4.67365850e+02
 4.67365850e+02
 4.67365850e+02
 4.67365850e+02
 4.67365850e+02
 4.67365850e+02
 4.67365850e+02
 4.67365850e+02
 4.67365850e+02
 4.29776349e+02
 4.29776349e+02
 4.29776349e+02
 4.29776349e+02
 4.29776349e+02
 4.29776349e+02
 4.29776349e+02
 4.29776349e+02
 4.15361230e+02
 4.03551836e+02
 4.03551836e+02
 4.03551836e+02
 3.77387854e+02
 3.77387854e+02
 3.77387854e+02
 3.72395264e+02
 3.72395264e+02
 3.72395264e+02
 3.72395264e+02
 3.72395264e+02
 3.57653015e+02
)
)
1
(
101
(
 5.90426039e+02
 6.05740590e+02
 6.05740590e+02
 6.05740590e+02
 6.05740590e+02
 6.05740590e+02
 6.05740590e+02
 6.05740590e+02
 6.05740590e+02
 6.05740590e+02
 6.05740590e+02
 6.05740590e+02
 6.05740590e+02
 6.05740590e+02
 6.05740590e+02
 6.05740590e+02
 6.05740590e+02
 6.05740590e+02
 6.05740590e+02
 6.05740590e+02
 6.05740590e+02
 6.05740590e+02
 6.05740590e+02
 6.05740590e+02
 6.05740590e+02
 6.05740590e+02
 6.05740590e+02
 6.05740590e+02
 6.05740590e+02
 6.05740590e+02
 6.05740590e+02
 6.05740590e+02
 6.05740590e+02
 6.05740590e+02
 6.05740590e+02
 6.05740590e+02
 6.05740590e+02
 6.05740590e+02
 6.05740590e+02
 6.05740590e+02
 6.38144907e+02
 6.38144907e+02
 6.38144907e+02
 6.38144907e+02
 5.77682647e+02
 5.77682647e+02
 5.77682647e+02
 5.77682647e+02
 5.77682647e+02
 5.77682647e+02
 5.77682647e+02
 5.77682647e+02
 5.77682647e+02
 5.77682647e+02
 5.77682647e+02
 5.77682647e+02
 5.77682647e+02
 5.77682647e+02
 5.16778409e+02
 5.16778409e+02
 5.16778409e+02
 5.16778409e+02
 5.16778409e+02
 5.16778409e+02
 5.16778409e+02
 5.16778409e+02
 5.16778409e+02
 5.16778409e+02
 4.67365850e+02
 4.67365850e+02
 4.67365850e+02
 4.67365850e+02
 4.67365850e+02
 4.67365850e+02
 4.67365850e+02
 4.67365850e+02
 4.67365850e+02
 4.67365850e+02
 4.67365850e+02
 4.67365850e+02
 4.67365850e+02
 4.43684170e+02
 4.29776349e+02
 4.29776349e+02
 4.29776349e+02
 4.29776349e+02
 4.29776349e+02
 4.29776349e+02
 4.29776349e+02
 4.15361230e+02
 4.15361230e+02
 4.05320663e+02
 4.05320663e+02
 3.77387854e+02
 3.77387854e+02
 3.77387854e+02
 3.77387854e+02
 3.72395264e+02
 3.72395264e+02
 3.72395264e+02
 3.72395264e+02
)
)
1
(
101
(
 5.90426039e+02
 6.19949894e+02
 6.19949894e+02
 6.19949894e+02
 6.19949894e+02
 6.19949894e+02
 6.19949894e+02
 6.19949894e+02
 6.19949894e+02
 6.19949894e+02
 6.19949894e+02
 6.19949894e+02
 6.19949894e+02
 6.19949894e+02
 6.19949894e+02
 6.19949894e+02
 6.19949894e+02
 6.19949894e+02
 6.19949894e+02
 6.19949894e+02
 6.19949894e+02
 6.19949894e+02
 6.19949894e+02
 6.19949894e+02
 6.19949894e+02
 6.19949894e+02
 6.19949894e+02
 6.19949894e+02
 6.19949894e+02
 6.19949894e+02
 6.19949894e+02
 6.19949894e+02
 6.19949894e+02
 6.19949894e+02
 6.19949894e+02
 6.19949894e+02
 6.19949894e+02
 6.19949894e+02
 6.19949894e+02
 6.19949894e+02
 6.38144907e+02
 6.38144907e+02
 6.38144907e+02
 6.38144907e+02
 6.38144907e+02
 5.77682647e+02
 5.77682647e+02
 5.77682647e+02
 5.77682647e+02
 5.77682647e+02
 5.77682647e+02
 5.77682647e+02
 5.77682647e+02
 5.77682647e+02
 5.77682647e+02
 5.77682647e+02
 5.77682647e+02
 5.77682647e+02
 5.77682647e+02
 5.16778409e+02
 5.16778409e+02
 5.16778409e+02
 5.16778409e+02
 5.16778409e+02
 5.16778409e+02
 5.16778409e+02
 5.16778409e+02
 5.16778409e+02
 5.16778409e+02
 4.67365850e+02
 4.67365850e+02
 4.67365850e+02
 4.67365850e+02
 4.67365850e+02
 4.67365850e+02
 4.67365850e+02
 4.67365850e+02
 4.67365850e+02
 4.67365850e+02
 4.67365850e+02
 4.67365850e+02
 4.67365850e+02
 4.43684170e+02
 4.43684170e+02
 4.29776349e+02
 4.29776349e+02
 4.29776349e+02
 4.29776349e+02
 4.29776349e+02
 4.15361230e+02
 4.15361230e+02
 4.15361230e+02
 4.05320663e+02
 4.05320663e+02
 3.77387854e+02
 3.77387854e+02
 3.77387854e+02
 3.77387854e+02
 3.77387854e+02
 3.72395264e+02
 3.72395264e+02
)
)
1
(
101
(
 6.44511295e+02
 6.44511295e+02
 6.44511295e+02
 6.44511295e+02
 6.44511295e+02
 6.44511295e+02
 6.44511295e+02
 6.44511295e+02
 6.44511295e+02
 6.44511295e+02
 6.44511295e+02
 6.44511295e+02
 6.44511295e+02
 6.44511295e+02
 6.44511295e+02
 6.44511295e+02
 6.44511295e+02
 6.44511295e+02
 6.44511295e+02
 6.44511295e+02
 6.44511295e+02
 6.44511295e+02
 6.44511295e+02
 6.44511295e+02
 6.44511295e+02
 6.44511295e+02
 6.44511295e+02
 6.44511295e+02
 6.44511295e+02
 6.44511295e+02
 6.44511295e+02
 6.44511295e+02
 6.44511295e+02
 6.44511295e+02
 6.44511295e+02
 6.44511295e+02
 6.44511295e+02
 6.44511295e+02
 6.44511295e+02
 6.44511295e+02
 6.38144907e+02
 6.38144907e+02
 6.38144907e+02
 6.38144907e+02
 6.38144907e+02
 6.38144907e+02
 5.77682647e+02
 5.77682647e+02
 5.77682647e+02
 5.77682647e+02
 5.77682647e+02
 5.77682647e+02
 5.77682647e+02
 5.77682647e+02
 5.77682647e+02
 5.77682647e+02
 5.77682647e+02
 5.77682647e+02
 5.77682647e+02
 5.77682647e+02
 5.77682647e+02
 5.16778409e+02
 5.16778409e+02
 5.16778409e+02
 5.16778409e+02
 5.16778409e+02
 5.16778409e+02
 5.16778409e+02
 5.16778409e+02
 5.16778409e+02
 5.16778409e+02
 4.67365850e+02
 4.67365850e+02
 4.67365850e+02
 4.67365850e+02
 4.67365850e+02
 4.67365850e+02
 4.67365850e+02
 4.67365850e+02
 4.67365850e+02
 4.67365850e+02
 4.67365850e+02
 4.67365850e+02
 4.43684170e+02
 4.43684170e+02
 4.43684170e+02
 4.29776349e+02
 4.29776349e+02
 4.29776349e+02
 4.29776349e+02
 4.15361230e+02
 4.15361230e+02
 4.15361230e+02
 4.05320663e+02
 4.05320663e+02
 3.77387854e+02
 3.77387854e+02
 3.77387854e+02
 3.77387854e+02
 3.77387854e+02
 3.77387854e+02
)
)
1
(
101
(
 6.67056917e+02
 6.67056917e+02
 6.67056917e+02
 6.67056917e+02
 6.67056917e+02
 6.67056917e+02
 6.67056917e+02
 6.67056917e+02
 6.67056917e+02
 6.67056917e+02
 6.67056917e+02
 6.67056917e+02
 6.67056917e+02
 6.67056917e+02
 6.67056917e+02
 6.67056917e+02
 6.67056917e+02
 6.67056917e+02
 6.67056917e+02
 6.67056917e+02
 6.67056917e+02
 6.67056917e+02
 6.67056917e+02
 6.67056917e+02
 6.67056917e+02
 6.67056917e+02
 6.67056917e+02
 6.67056917e+02
 6.67056917e+02
 6.67056917e+02
 6.67056917e+02
 6.67056917e+02
 6.67056917e+02
 6.67056917e+02
 6.67056917e+02
 6.67056917e+02
 6.67056917e+02
 6.67056917e+02
 6.67056917e+02
 6.38144907e+02
 6.38144907e+02
 6.38144907e+02
 6.38144907e+02
 6.38144907e+02
 6.38144907e+02
 6.38144907e+02
 6.38144907e+02
 6.38144907e+02
 5.77682647e+02
 5.77682647e+02
 5.77682647e+02
 5.77682647e+02
 5.77682647e+02
 5.77682647e+02
 5.77682647e+02
 5.77682647e+02
 5.77682647e+02
 5.77682647e+02
 5.77682647e+02
 5.77682647e+02
 5.77682647e+02
 5.77682647e+02
 5.16778409e+02
 5.16778409e+02
 5.16778409e+02
 5.16778409e+02
 5.16778409e+02
 5.16778409e+02
 5.16778409e+02
 5.16778409e+02
 5.16778409e+02
 5.16778409e+02
 4.67365850e+02
 4.67365850e+02
 4.67365850e+02
 4.67365850e+02
 4.67365850e+02
 4.67365850e+02
 4.67365850e+02
 4.67365850e+02
 4.67365850e+02
 4.67365850e+02
 4.67365850e+02
 4.67365850e+02
 4.43684170e+02
 4.43684170e+02
 4.43684170e+02
 4.43684170e+02
 4.33880594e+02
 4.33880594e+02
 4.33880594e+02
 4.15361230e+02
 4.15361230e+02
 4.15361230e+02
 4.05320663e+02
 4.05320663e+02
 3.77387854e+02
 3.77387854e+02
 3.77387854e+02