/*--------------------------------*- C++ -*----------------------------------*\
| =========                 |                                                 |
| \\      /  F ield        | OpenFOAM: The Open Source CFD Toolbox           |
|  \\    /   O peration    | Version:  7                                     |
|   \\  /    A nd          | Web:      http://www.OpenFOAM.com               |
|    \\/     M anipulation |                                                 |
\*---------------------------------------------------------------------------*/

FoamFile
{
    version     2.0;
    format      ascii;
    class       dictionary;
    object      Y_AR_table;
}

Y_AR_table
2
(
101
(
1
(
101
(
 1.87274280e-23
 1.87274280e-23
 1.87274280e-23
 1.87274280e-23
 1.87274280e-23
 1.87274280e-23
 1.87274280e-23
 1.87274280e-23
 1.87274280e-23
 1.87274280e-23
 1.87274280e-23
 1.87274280e-23
 1.87274280e-23
 1.87274280e-23
 1.87274280e-23
 1.87274280e-23
 1.87274280e-23
 1.87274280e-23
 1.87274280e-23
 1.87274280e-23
 1.87274280e-23
 1.87274280e-23
 1.87274280e-23
 1.87274280e-23
 1.87274280e-23
 1.87274280e-23
 1.87274280e-23
 1.87274280e-23
 1.87274280e-23
 1.87274280e-23
 1.87274280e-23
 1.87274280e-23
 1.87274280e-23
 1.87274280e-23
 1.87274280e-23
 1.87274280e-23
 1.87274280e-23
 1.87274280e-23
 1.87274280e-23
 1.87274280e-23
 1.87274280e-23
 1.87274280e-23
 1.87274280e-23
 1.87274280e-23
 1.87274280e-23
 1.06354985e-19
 1.06354985e-19
 4.94304341e-18
 4.94304341e-18
 4.94304341e-18
 4.94304341e-18
 4.94304341e-18
 4.94304341e-18
 4.94304341e-18
 4.94304341e-18
 4.94304341e-18
 4.94304341e-18
 4.94304341e-18
 4.94304341e-18
 4.94304341e-18
 4.94304341e-18
 4.94304341e-18
 4.94304341e-18
 1.39122356e-17
 1.39122356e-17
 1.39122356e-17
 1.39122356e-17
 1.39122356e-17
 1.39122356e-17
 1.39122356e-17
 1.39122356e-17
 1.39122356e-17
 1.39122356e-17
 1.39122356e-17
 1.39122356e-17
 1.98600753e-18
 1.98600753e-18
 1.98600753e-18
 1.98600753e-18
 1.98600753e-18
 1.98600753e-18
 1.98600753e-18
 1.96370671e-18
 1.96370671e-18
 1.96370671e-18
 1.96370671e-18
 1.96370671e-18
 1.96370671e-18
 2.18743966e-18
 2.18743966e-18
 2.18743966e-18
 2.18743966e-18
 2.18743966e-18
 2.18743966e-18
 2.18743966e-18
 7.99256699e-18
 7.99256699e-18
 7.99256699e-18
 7.99256699e-18
 7.99256699e-18
 9.38346075e-18
)
)
1
(
101
(
 8.80464868e-22
 8.80464868e-22
 8.80464868e-22
 8.80464868e-22
 8.80464868e-22
 8.80464868e-22
 8.80464868e-22
 8.80464868e-22
 8.80464868e-22
 8.80464868e-22
 8.80464868e-22
 8.80464868e-22
 8.80464868e-22
 8.80464868e-22
 8.80464868e-22
 8.80464868e-22
 8.80464868e-22
 8.80464868e-22
 8.80464868e-22
 8.80464868e-22
 8.80464868e-22
 8.80464868e-22
 8.80464868e-22
 8.80464868e-22
 8.80464868e-22
 8.80464868e-22
 8.80464868e-22
 8.80464868e-22
 8.80464868e-22
 8.80464868e-22
 8.80464868e-22
 8.80464868e-22
 8.80464868e-22
 8.80464868e-22
 8.80464868e-22
 8.80464868e-22
 8.80464868e-22
 8.80464868e-22
 8.80464868e-22
 8.80464868e-22
 8.80464868e-22
 8.80464868e-22
 8.80464868e-22
 8.80464868e-22
 8.80464868e-22
 1.06354985e-19
 1.06354985e-19
 1.06354985e-19
 4.94304341e-18
 4.94304341e-18
 4.94304341e-18
 4.94304341e-18
 4.94304341e-18
 4.94304341e-18
 4.94304341e-18
 4.94304341e-18
 4.94304341e-18
 4.94304341e-18
 4.94304341e-18
 4.94304341e-18
 4.94304341e-18
 4.94304341e-18
 4.94304341e-18
 4.94304341e-18
 4.94304341e-18
 1.39122356e-17
 1.39122356e-17
 1.39122356e-17
 1.39122356e-17
 1.39122356e-17
 1.39122356e-17
 1.39122356e-17
 1.39122356e-17
 1.39122356e-17
 1.39122356e-17
 1.39122356e-17
 1.39122356e-17
 1.98600753e-18
 1.98600753e-18
 1.98600753e-18
 1.98600753e-18
 1.98600753e-18
 1.98600753e-18
 1.96370671e-18
 1.96370671e-18
 1.96370671e-18
 1.96370671e-18
 1.96370671e-18
 1.96370671e-18
 1.96370671e-18
 2.18743966e-18
 2.18743966e-18
 2.18743966e-18
 2.18743966e-18
 2.18743966e-18
 2.18743966e-18
 6.62304030e-18
 7.99256699e-18
 7.99256699e-18
 7.99256699e-18
 6.13803502e-18
)
)
1
(
101
(
 1.71964682e-21
 1.71964682e-21
 1.71964682e-21
 1.71964682e-21
 1.71964682e-21
 1.71964682e-21
 1.71964682e-21
 1.71964682e-21
 1.71964682e-21
 1.71964682e-21
 1.71964682e-21
 1.71964682e-21
 1.71964682e-21
 1.71964682e-21
 1.71964682e-21
 1.71964682e-21
 1.71964682e-21
 1.71964682e-21
 1.71964682e-21
 1.71964682e-21
 1.71964682e-21
 1.71964682e-21
 1.71964682e-21
 1.71964682e-21
 1.71964682e-21
 1.71964682e-21
 1.71964682e-21
 1.71964682e-21
 1.71964682e-21
 1.71964682e-21
 1.71964682e-21
 1.71964682e-21
 1.71964682e-21
 1.71964682e-21
 1.71964682e-21
 1.71964682e-21
 1.71964682e-21
 1.71964682e-21
 1.71964682e-21
 1.71964682e-21
 1.71964682e-21
 1.71964682e-21
 1.71964682e-21
 1.71964682e-21
 1.06354985e-19
 1.06354985e-19
 1.06354985e-19
 1.06354985e-19
 1.06354985e-19
 1.06354985e-19
 4.94304341e-18
 4.94304341e-18
 4.94304341e-18
 4.94304341e-18
 4.94304341e-18
 4.94304341e-18
 4.94304341e-18
 4.94304341e-18
 4.94304341e-18
 4.94304341e-18
 4.94304341e-18
 4.94304341e-18
 4.94304341e-18
 4.94304341e-18
 4.94304341e-18
 4.94304341e-18
 1.39122356e-17
 1.39122356e-17
 1.39122356e-17
 1.39122356e-17
 1.39122356e-17
 1.39122356e-17
 1.39122356e-17
 1.39122356e-17
 1.39122356e-17
 1.39122356e-17
 1.39122356e-17
 1.39122356e-17
 1.98600753e-18
 1.98600753e-18
 1.98600753e-18
 1.98600753e-18
 1.98600753e-18
 1.98600753e-18
 1.98600753e-18
 1.96370671e-18
 1.96370671e-18
 1.96370671e-18
 1.96370671e-18
 1.96370671e-18
 1.96370671e-18
 2.18743966e-18
 2.18743966e-18
 2.18743966e-18
 2.18743966e-18
 2.18743966e-18
 2.18743966e-18
 6.62304030e-18
 6.62304030e-18
 4.46762512e-18
 4.46762512e-18
)
)
1
(
101
(
 2.72701377e-21
 2.72701377e-21
 2.72701377e-21
 2.72701377e-21
 2.72701377e-21
 2.72701377e-21
 2.72701377e-21
 2.72701377e-21
 2.72701377e-21
 2.72701377e-21
 2.72701377e-21
 2.72701377e-21
 2.72701377e-21
 2.72701377e-21
 2.72701377e-21
 2.72701377e-21
 2.72701377e-21
 2.72701377e-21
 2.72701377e-21
 2.72701377e-21
 2.72701377e-21
 2.72701377e-21
 2.72701377e-21
 2.72701377e-21
 2.72701377e-21
 2.72701377e-21
 2.72701377e-21
 2.72701377e-21
 2.72701377e-21
 2.72701377e-21
 2.72701377e-21
 2.72701377e-21
 2.72701377e-21
 2.72701377e-21
 2.72701377e-21
 2.72701377e-21
 2.72701377e-21
 2.72701377e-21
 2.72701377e-21
 2.72701377e-21
 2.72701377e-21
 2.72701377e-21
 2.72701377e-21
 2.72701377e-21
 2.47948815e-18
 1.06354985e-19
 1.06354985e-19
 1.06354985e-19
 1.06354985e-19
 1.06354985e-19
 1.06354985e-19
 4.94304341e-18
 4.94304341e-18
 4.94304341e-18
 4.94304341e-18
 4.94304341e-18
 4.94304341e-18
 4.94304341e-18
 4.94304341e-18
 4.94304341e-18
 4.94304341e-18
 4.94304341e-18
 4.94304341e-18
 4.94304341e-18
 4.94304341e-18
 4.94304341e-18
 4.94304341e-18
 1.39122356e-17
 1.39122356e-17
 1.39122356e-17
 1.39122356e-17
 1.39122356e-17
 1.39122356e-17
 1.39122356e-17
 1.39122356e-17
 1.39122356e-17
 1.39122356e-17
 1.39122356e-17
 1.39122356e-17
 2.07411935e-18
 1.98600753e-18
 1.98600753e-18
 1.98600753e-18
 1.98600753e-18
 1.98600753e-18
 1.98600753e-18
 1.96370671e-18
 1.96370671e-18
 1.96370671e-18
 1.96370671e-18
 1.96370671e-18
 1.96370671e-18
 1.96370671e-18
 2.18743966e-18
 2.18743966e-18
 2.18743966e-18
 2.18743966e-18
 2.18743966e-18
 6.62304030e-18
 1.05051522e-17
 1.05051522e-17
)
)
1
(
101
(
 4.30211035e-21
 4.30211035e-21
 4.30211035e-21
 4.30211035e-21
 4.30211035e-21
 4.30211035e-21
 4.30211035e-21
 4.30211035e-21
 4.30211035e-21
 4.30211035e-21
 4.30211035e-21
 4.30211035e-21
 4.30211035e-21
 4.30211035e-21
 4.30211035e-21
 4.30211035e-21
 4.30211035e-21
 4.30211035e-21
 4.30211035e-21
 4.30211035e-21
 4.30211035e-21
 4.30211035e-21
 4.30211035e-21
 4.30211035e-21
 4.30211035e-21
 4.30211035e-21
 4.30211035e-21
 4.30211035e-21
 4.30211035e-21
 4.30211035e-21
 4.30211035e-21
 4.30211035e-21
 4.30211035e-21
 4.30211035e-21
 4.30211035e-21
 4.30211035e-21
 4.30211035e-21
 4.30211035e-21
 4.30211035e-21
 4.30211035e-21
 4.30211035e-21
 4.30211035e-21
 4.30211035e-21
 4.30211035e-21
 2.47948815e-18
 2.47948815e-18
 2.47948815e-18
 1.06354985e-19
 1.06354985e-19
 1.06354985e-19
 1.06354985e-19
 1.06354985e-19
 1.06354985e-19
 4.94304341e-18
 4.94304341e-18
 4.94304341e-18
 4.94304341e-18
 4.94304341e-18
 4.94304341e-18
 4.94304341e-18
 4.94304341e-18
 4.94304341e-18
 4.94304341e-18
 4.94304341e-18
 4.94304341e-18
 4.94304341e-18
 4.94304341e-18
 4.94304341e-18
 1.39122356e-17
 1.39122356e-17
 1.39122356e-17
 1.39122356e-17
 1.39122356e-17
 1.39122356e-17
 1.39122356e-17
 1.39122356e-17
 1.39122356e-17
 1.39122356e-17
 1.39122356e-17
 1.39122356e-17
 2.07411935e-18
 1.98600753e-18
 1.98600753e-18
 1.98600753e-18
 1.98600753e-18
 1.98600753e-18
 1.98600753e-18
 1.98600753e-18
 1.96370671e-18
 1.96370671e-18
 1.96370671e-18
 1.96370671e-18
 1.96370671e-18
 1.96370671e-18
 3.20912096e-18
 2.18743966e-18
 2.18743966e-18
 2.18743966e-18
 4.99399327e-18
 4.99399327e-18
 1.05051522e-17
)
)
1
(
101
(
 3.95790182e-21
 3.95790182e-21
 3.95790182e-21
 3.95790182e-21
 3.95790182e-21
 3.95790182e-21
 3.95790182e-21
 3.95790182e-21
 3.95790182e-21
 3.95790182e-21
 3.95790182e-21
 3.95790182e-21
 3.95790182e-21
 3.95790182e-21
 3.95790182e-21
 3.95790182e-21
 3.95790182e-21
 3.95790182e-21
 3.95790182e-21
 3.95790182e-21
 3.95790182e-21
 3.95790182e-21
 3.95790182e-21
 3.95790182e-21
 3.95790182e-21
 3.95790182e-21
 3.95790182e-21
 3.95790182e-21
 3.95790182e-21
 3.95790182e-21
 3.95790182e-21
 3.95790182e-21
 3.95790182e-21
 3.95790182e-21
 3.95790182e-21
 3.95790182e-21
 3.95790182e-21
 3.95790182e-21
 3.95790182e-21
 3.95790182e-21
 3.95790182e-21
 3.95790182e-21
 1.44509212e-20
 2.47948815e-18
 2.47948815e-18
 2.47948815e-18
 2.47948815e-18
 2.47948815e-18
 1.06354985e-19
 1.06354985e-19
 1.06354985e-19
 1.06354985e-19
 1.06354985e-19
 1.06354985e-19
 4.94304341e-18
 4.94304341e-18
 4.94304341e-18
 4.94304341e-18
 4.94304341e-18
 4.94304341e-18
 4.94304341e-18
 4.94304341e-18
 4.94304341e-18
 4.94304341e-18
 4.94304341e-18
 4.94304341e-18
 4.94304341e-18
 4.94304341e-18
 4.94304341e-18
 4.94304341e-18
 1.39122356e-17
 1.39122356e-17
 1.39122356e-17
 1.39122356e-17
 1.39122356e-17
 1.39122356e-17
 1.39122356e-17
 1.39122356e-17
 1.39122356e-17
 1.39122356e-17
 1.39122356e-17
 2.07411935e-18
 2.07411935e-18
 1.98600753e-18
 1.98600753e-18
 1.98600753e-18
 1.98600753e-18
 1.98600753e-18
 1.98600753e-18
 1.96370671e-18
 1.96370671e-18
 1.96370671e-18
 1.96370671e-18
 1.96370671e-18
 1.96370671e-18
 3.20912096e-18
 3.20912096e-18
 6.46677577e-18
 6.46677577e-18
 4.99399327e-18
 4.99399327e-18
)
)
1
(
101
(
 7.82246369e-21
 7.82246369e-21
 7.82246369e-21
 7.82246369e-21
 7.82246369e-21
 7.82246369e-21
 7.82246369e-21
 7.82246369e-21
 7.82246369e-21
 7.82246369e-21
 7.82246369e-21
 7.82246369e-21
 7.82246369e-21
 7.82246369e-21
 7.82246369e-21
 7.82246369e-21
 7.82246369e-21
 7.82246369e-21
 7.82246369e-21
 7.82246369e-21
 7.82246369e-21
 7.82246369e-21
 7.82246369e-21
 7.82246369e-21
 7.82246369e-21
 7.82246369e-21
 7.82246369e-21
 7.82246369e-21
 7.82246369e-21
 7.82246369e-21
 7.82246369e-21
 7.82246369e-21
 7.82246369e-21
 1.44509212e-20
 1.44509212e-20
 1.44509212e-20
 1.44509212e-20
 1.44509212e-20
 1.44509212e-20
 1.44509212e-20
 1.44509212e-20
 1.44509212e-20
 1.44509212e-20
 2.47948815e-18
 2.47948815e-18
 2.47948815e-18
 2.47948815e-18
 2.47948815e-18
 2.47948815e-18
 1.06354985e-19
 1.06354985e-19
 1.06354985e-19
 1.06354985e-19
 1.06354985e-19
 1.06354985e-19
 1.06354985e-19
 4.94304341e-18
 4.94304341e-18
 4.94304341e-18
 4.94304341e-18
 4.94304341e-18
 4.94304341e-18
 4.94304341e-18
 4.94304341e-18
 4.94304341e-18
 4.94304341e-18
 4.94304341e-18
 4.94304341e-18
 4.94304341e-18
 4.94304341e-18
 4.94304341e-18
 1.39122356e-17
 1.39122356e-17
 1.39122356e-17
 1.39122356e-17
 1.39122356e-17
 1.39122356e-17
 1.39122356e-17
 1.39122356e-17
 1.39122356e-17
 1.39122356e-17
 1.39122356e-17
 2.07411935e-18
 2.07411935e-18
 1.98600753e-18
 1.98600753e-18
 1.98600753e-18
 1.98600753e-18
 1.98600753e-18
 1.98600753e-18
 1.98600753e-18
 1.96370671e-18
 1.96370671e-18
 1.96370671e-18
 1.96370671e-18
 1.96370671e-18
 3.20912096e-18
 3.20912096e-18
 6.46677577e-18
 6.46677577e-18
 4.99399327e-18
)
)
1
(
101
(
 7.13636198e-21
 7.13636198e-21
 7.13636198e-21
 7.13636198e-21
 7.13636198e-21
 7.13636198e-21
 7.13636198e-21
 7.13636198e-21
 7.13636198e-21
 7.13636198e-21
 7.13636198e-21
 7.13636198e-21
 7.13636198e-21
 7.13636198e-21
 7.13636198e-21
 7.13636198e-21
 7.13636198e-21
 7.13636198e-21
 7.13636198e-21
 7.13636198e-21
 7.13636198e-21
 7.13636198e-21
 7.13636198e-21
 7.13636198e-21
 7.13636198e-21
 7.13636198e-21
 1.44509212e-20
 1.44509212e-20
 1.44509212e-20
 1.44509212e-20
 1.44509212e-20
 1.44509212e-20
 1.44509212e-20
 1.44509212e-20
 1.44509212e-20
 1.44509212e-20
 1.44509212e-20
 1.44509212e-20
 1.44509212e-20
 1.44509212e-20
 1.44509212e-20
 1.44509212e-20
 1.44509212e-20
 2.47948815e-18
 2.47948815e-18
 2.47948815e-18
 2.47948815e-18
 2.47948815e-18
 2.47948815e-18
 2.47948815e-18
 1.06354985e-19
 1.06354985e-19
 1.06354985e-19
 1.06354985e-19
 1.06354985e-19
 1.06354985e-19
 1.06354985e-19
 4.94304341e-18
 4.94304341e-18
 4.94304341e-18
 4.94304341e-18
 4.94304341e-18
 4.94304341e-18
 4.94304341e-18
 4.94304341e-18
 4.94304341e-18
 4.94304341e-18
 4.94304341e-18
 4.94304341e-18
 4.94304341e-18
 4.94304341e-18
 4.94304341e-18
 1.39122356e-17
 1.39122356e-17
 1.39122356e-17
 1.39122356e-17
 1.39122356e-17
 1.39122356e-17
 1.39122356e-17
 1.39122356e-17
 1.39122356e-17
 1.39122356e-17
 1.39122356e-17
 2.07411935e-18
 2.07411935e-18
 2.07411935e-18
 1.98600753e-18
 1.98600753e-18
 1.98600753e-18
 1.98600753e-18
 1.98600753e-18
 1.98600753e-18
 1.00093432e-17
 1.96370671e-18
 1.96370671e-18
 1.96370671e-18
 4.81401190e-18
 4.81401190e-18
 4.81401190e-18
 6.46677577e-18
 6.46677577e-18
)
)
1
(
101
(
 8.56588599e-21
 8.56588599e-21
 8.56588599e-21
 8.56588599e-21
 8.56588599e-21
 8.56588599e-21
 8.56588599e-21
 8.56588599e-21
 8.56588599e-21
 8.56588599e-21
 8.56588599e-21
 8.56588599e-21
 8.56588599e-21
 8.56588599e-21
 8.56588599e-21
 8.56588599e-21
 8.56588599e-21
 8.56588599e-21
 8.56588599e-21
 1.44509212e-20
 1.44509212e-20
 1.44509212e-20
 1.44509212e-20
 1.44509212e-20
 1.44509212e-20
 1.44509212e-20
 1.44509212e-20
 1.44509212e-20
 1.44509212e-20
 1.44509212e-20
 1.44509212e-20
 1.44509212e-20
 1.44509212e-20
 1.44509212e-20
 1.44509212e-20
 1.44509212e-20
 1.44509212e-20
 1.44509212e-20
 1.44509212e-20
 1.44509212e-20
 1.44509212e-20
 1.44509212e-20
 2.47948815e-18
 2.47948815e-18
 2.47948815e-18
 2.47948815e-18
 2.47948815e-18
 2.47948815e-18
 2.47948815e-18
 2.47948815e-18
 2.47948815e-18
 1.06354985e-19
 1.06354985e-19
 1.06354985e-19
 1.06354985e-19
 1.06354985e-19
 1.06354985e-19
 1.06354985e-19
 1.06354985e-19
 4.94304341e-18
 4.94304341e-18
 4.94304341e-18
 4.94304341e-18
 4.94304341e-18
 4.94304341e-18
 4.94304341e-18
 4.94304341e-18
 4.94304341e-18
 4.94304341e-18
 4.94304341e-18
 4.94304341e-18
 4.94304341e-18
 4.94304341e-18
 1.39122356e-17
 1.39122356e-17
 1.39122356e-17
 1.39122356e-17
 1.39122356e-17
 1.39122356e-17
 1.39122356e-17
 1.39122356e-17
 1.39122356e-17
 1.39122356e-17
 1.39122356e-17
 2.07411935e-18
 2.07411935e-18
 2.07411935e-18
 1.98600753e-18
 1.98600753e-18
 1.98600753e-18
 1.98600753e-18
 1.98600753e-18
 1.98600753e-18
 1.00093432e-17
 1.00093432e-17
 3.70964610e-18
 3.70964610e-18
 4.81401190e-18
 4.81401190e-18
 4.81401190e-18
 4.81401190e-18
)
)
1
(
101
(
 1.12255824e-20
 1.12255824e-20
 1.12255824e-20
 1.12255824e-20
 1.12255824e-20
 1.12255824e-20
 1.12255824e-20
 1.12255824e-20
 1.12255824e-20
 1.12255824e-20
 1.12255824e-20
 1.12255824e-20
 1.12255824e-20
 1.12255824e-20
 1.44509212e-20
 1.44509212e-20
 1.44509212e-20
 1.44509212e-20
 1.44509212e-20
 1.44509212e-20
 1.44509212e-20
 1.44509212e-20
 1.44509212e-20
 1.44509212e-20
 1.44509212e-20
 1.44509212e-20
 1.44509212e-20
 1.44509212e-20
 1.44509212e-20
 1.44509212e-20
 1.44509212e-20
 1.44509212e-20
 1.44509212e-20
 1.44509212e-20
 1.44509212e-20
 1.44509212e-20
 1.44509212e-20
 1.44509212e-20
 1.44509212e-20
 1.44509212e-20
 1.44509212e-20
 1.44509212e-20
 2.47948815e-18
 2.47948815e-18
 2.47948815e-18
 2.47948815e-18
 2.47948815e-18
 2.47948815e-18
 2.47948815e-18
 2.47948815e-18
 2.47948815e-18
 2.47948815e-18
 1.06354985e-19
 1.06354985e-19
 1.06354985e-19
 1.06354985e-19
 1.06354985e-19
 1.06354985e-19
 1.06354985e-19
 1.06354985e-19
 4.94304341e-18
 4.94304341e-18
 4.94304341e-18
 4.94304341e-18
 4.94304341e-18
 4.94304341e-18
 4.94304341e-18
 4.94304341e-18
 4.94304341e-18
 4.94304341e-18
 4.94304341e-18
 4.94304341e-18
 4.94304341e-18
 4.94304341e-18
 4.94304341e-18
 1.39122356e-17
 1.39122356e-17
 1.39122356e-17
 1.39122356e-17
 1.39122356e-17
 1.39122356e-17
 1.39122356e-17
 1.39122356e-17
 1.39122356e-17
 1.39122356e-17
 2.07411935e-18
 2.07411935e-18
 2.07411935e-18
 2.07411935e-18
 1.98600753e-18
 1.98600753e-18
 1.98600753e-18
 1.98600753e-18
 1.98600753e-18
 1.00093432e-17
 1.00093432e-17
 3.70964610e-18
 3.70964610e-18
 4.81401190e-18
 4.81401190e-18
 4.81401190e-18
)
)
1
(
101
(
 1.09911244e-20
 1.09911244e-20
 1.09911244e-20
 1.09911244e-20
 1.09911244e-20
 1.09911244e-20
 1.09911244e-20
 1.09911244e-20
 1.09911244e-20
 1.44509212e-20
 1.44509212e-20
 1.44509212e-20
 1.44509212e-20
 1.44509212e-20
 1.44509212e-20
 1.44509212e-20
 1.44509212e-20
 1.44509212e-20
 1.44509212e-20
 1.44509212e-20
 1.44509212e-20
 1.44509212e-20
 1.44509212e-20
 1.44509212e-20
 1.44509212e-20
 1.44509212e-20
 1.44509212e-20
 1.44509212e-20
 1.44509212e-20
 1.44509212e-20
 1.44509212e-20
 1.44509212e-20
 1.44509212e-20
 1.44509212e-20
 1.44509212e-20
 1.44509212e-20
 1.44509212e-20
 1.44509212e-20
 1.44509212e-20
 1.44509212e-20
 1.44509212e-20
 1.44509212e-20
 2.47948815e-18
 2.47948815e-18
 2.47948815e-18
 2.47948815e-18
 2.47948815e-18
 2.47948815e-18
 2.47948815e-18
 2.47948815e-18
 2.47948815e-18
 2.47948815e-18
 2.47948815e-18
 2.47948815e-18
 1.06354985e-19
 1.06354985e-19
 1.06354985e-19
 1.06354985e-19
 1.06354985e-19
 1.06354985e-19
 1.06354985e-19
 1.06354985e-19
 4.94304341e-18
 4.94304341e-18
 4.94304341e-18
 4.94304341e-18
 4.94304341e-18
 4.94304341e-18
 4.94304341e-18
 4.94304341e-18
 4.94304341e-18
 4.94304341e-18
 4.94304341e-18
 4.94304341e-18
 4.94304341e-18
 4.94304341e-18
 1.39122356e-17
 1.39122356e-17
 1.39122356e-17
 1.39122356e-17
 1.39122356e-17
 1.39122356e-17
 1.39122356e-17
 1.39122356e-17
 1.39122356e-17
 1.39122356e-17
 2.07411935e-18
 2.07411935e-18
 2.07411935e-18
 2.07411935e-18
 2.23464699e-17
 1.98600753e-18
 1.98600753e-18
 1.98600753e-18
 1.98600753e-18
 1.00093432e-17
 1.00093432e-17
 3.70964610e-18
 3.70964610e-18
 4.81401190e-18
 4.81401190e-18
)
)
1
(
101
(
 1.19208016e-20
 1.19208016e-20
 1.19208016e-20
 1.19208016e-20
 1.19208016e-20
 1.19208016e-20
 1.44509212e-20
 1.44509212e-20
 1.44509212e-20
 1.44509212e-20
 1.44509212e-20
 1.44509212e-20
 1.44509212e-20
 1.44509212e-20
 1.44509212e-20
 1.44509212e-20
 1.44509212e-20
 1.44509212e-20
 1.44509212e-20
 1.44509212e-20
 1.44509212e-20
 1.44509212e-20
 1.44509212e-20
 1.44509212e-20
 1.44509212e-20
 1.44509212e-20
 1.44509212e-20
 1.44509212e-20
 1.44509212e-20
 1.44509212e-20
 1.44509212e-20
 1.44509212e-20
 1.44509212e-20
 1.44509212e-20
 1.44509212e-20
 1.44509212e-20
 1.44509212e-20
 1.44509212e-20
 1.44509212e-20
 1.44509212e-20
 1.44509212e-20
 1.44509212e-20
 2.47948815e-18
 2.47948815e-18
 2.47948815e-18
 2.47948815e-18
 2.47948815e-18
 2.47948815e-18
 2.47948815e-18
 2.47948815e-18
 2.47948815e-18
 2.47948815e-18
 2.47948815e-18
 2.47948815e-18
 2.47948815e-18
 1.06354985e-19
 1.06354985e-19
 1.06354985e-19
 1.06354985e-19
 1.06354985e-19
 1.06354985e-19
 1.06354985e-19
 1.06354985e-19
 4.94304341e-18
 4.94304341e-18
 4.94304341e-18
 4.94304341e-18
 4.94304341e-18
 4.94304341e-18
 4.94304341e-18
 4.94304341e-18
 4.94304341e-18
 4.94304341e-18
 4.94304341e-18
 4.94304341e-18
 4.94304341e-18
 4.94304341e-18
 1.39122356e-17
 1.39122356e-17
 1.39122356e-17
 1.39122356e-17
 1.39122356e-17
 1.39122356e-17
 1.39122356e-17
 1.39122356e-17
 1.39122356e-17
 1.39122356e-17
 2.07411935e-18
 2.07411935e-18
 2.07411935e-18
 2.07411935e-18
 2.23464699e-17
 2.23464699e-17
 1.08700542e-19
 1.08700542e-19
 1.08700542e-19
 1.00093432e-17
 1.00093432e-17
 3.70964610e-18
 3.70964610e-18
 4.81401190e-18
)
)
1
(
101
(
 1.44671691e-20
 1.44671691e-20
 1.44671691e-20
 1.44509212e-20
 1.44509212e-20
 1.44509212e-20
 1.44509212e-20
 1.44509212e-20
 1.44509212e-20
 1.44509212e-20
 1.44509212e-20
 1.44509212e-20
 1.44509212e-20
 1.44509212e-20
 1.44509212e-20
 1.44509212e-20
 1.44509212e-20
 1.44509212e-20
 1.44509212e-20
 1.44509212e-20
 1.44509212e-20
 1.44509212e-20
 1.44509212e-20
 1.44509212e-20
 1.44509212e-20
 1.44509212e-20
 1.44509212e-20
 1.44509212e-20
 1.44509212e-20
 1.44509212e-20
 1.44509212e-20
 1.44509212e-20
 1.44509212e-20
 1.44509212e-20
 1.44509212e-20
 1.44509212e-20
 1.44509212e-20
 1.44509212e-20
 1.44509212e-20
 1.44509212e-20
 1.44509212e-20
 2.14131996e-19
 2.47948815e-18
 2.47948815e-18
 2.47948815e-18
 2.47948815e-18
 2.47948815e-18
 2.47948815e-18
 2.47948815e-18
 2.47948815e-18
 2.47948815e-18
 2.47948815e-18
 2.47948815e-18
 2.47948815e-18
 2.47948815e-18
 2.47948815e-18
 1.06354985e-19
 1.06354985e-19
 1.06354985e-19
 1.06354985e-19
 1.06354985e-19
 1.06354985e-19
 1.06354985e-19
 1.06354985e-19
 1.06354985e-19
 4.94304341e-18
 4.94304341e-18
 4.94304341e-18
 4.94304341e-18
 4.94304341e-18
 4.94304341e-18
 4.94304341e-18
 4.94304341e-18
 4.94304341e-18
 4.94304341e-18
 4.94304341e-18
 4.94304341e-18
 4.94304341e-18
 1.39122356e-17
 1.39122356e-17
 1.39122356e-17
 1.39122356e-17
 1.39122356e-17
 1.39122356e-17
 1.39122356e-17
 1.39122356e-17
 1.39122356e-17
 1.39122356e-17
 2.07411935e-18
 2.07411935e-18
 2.07411935e-18
 2.07411935e-18
 2.23464699e-17
 2.23464699e-17
 1.08700542e-19
 1.08700542e-19
 1.08700542e-19
 1.08700542e-19
 1.00093432e-17
 3.70964610e-18
 3.70964610e-18
)
)
1
(
101
(
 1.22943736e-20
 1.22943736e-20
 1.44509212e-20
 1.44509212e-20
 1.44509212e-20
 1.44509212e-20
 1.44509212e-20
 1.44509212e-20
 1.44509212e-20
 1.44509212e-20
 1.44509212e-20
 1.44509212e-20
 1.44509212e-20
 1.44509212e-20
 1.44509212e-20
 1.44509212e-20
 1.44509212e-20
 1.44509212e-20
 1.44509212e-20
 1.44509212e-20
 1.44509212e-20
 1.44509212e-20
 1.44509212e-20
 1.44509212e-20
 1.44509212e-20
 1.44509212e-20
 1.44509212e-20
 1.44509212e-20
 1.44509212e-20
 1.44509212e-20
 1.44509212e-20
 1.44509212e-20
 1.44509212e-20
 1.44509212e-20
 1.44509212e-20
 1.44509212e-20
 1.44509212e-20
 1.44509212e-20
 1.44509212e-20
 1.44509212e-20
 1.44509212e-20
 2.14131996e-19
 2.14131996e-19
 2.47948815e-18
 2.47948815e-18
 2.47948815e-18
 2.47948815e-18
 2.47948815e-18
 2.47948815e-18
 2.47948815e-18
 2.47948815e-18
 2.47948815e-18
 2.47948815e-18
 2.47948815e-18
 2.47948815e-18
 2.47948815e-18
 2.47948815e-18
 1.06354985e-19
 1.06354985e-19
 1.06354985e-19
 1.06354985e-19
 1.06354985e-19
 1.06354985e-19
 1.06354985e-19
 1.06354985e-19
 1.06354985e-19
 4.94304341e-18
 4.94304341e-18
 4.94304341e-18
 4.94304341e-18
 4.94304341e-18
 4.94304341e-18
 4.94304341e-18
 4.94304341e-18
 4.94304341e-18
 4.94304341e-18
 4.94304341e-18
 4.94304341e-18
 4.94304341e-18
 4.94304341e-18
 1.39122356e-17
 1.39122356e-17
 1.39122356e-17
 1.39122356e-17
 1.39122356e-17
 1.39122356e-17
 1.39122356e-17
 1.39122356e-17
 6.98108866e-18
 2.07411935e-18
 2.07411935e-18
 2.07411935e-18
 8.32208983e-21
 8.32208983e-21
 8.32208983e-21
 1.08700542e-19
 1.08700542e-19
 1.08700542e-19
 1.08700542e-19
 1.08700542e-19
 3.70964610e-18
)
)
1
(
101
(
 1.26911154e-20
 1.44509212e-20
 1.44509212e-20
 1.44509212e-20
 1.44509212e-20
 1.44509212e-20
 1.44509212e-20
 1.44509212e-20
 1.44509212e-20
 1.44509212e-20
 1.44509212e-20
 1.44509212e-20
 1.44509212e-20
 1.44509212e-20
 1.44509212e-20
 1.44509212e-20
 1.44509212e-20
 1.44509212e-20
 1.44509212e-20
 1.44509212e-20
 1.44509212e-20
 1.44509212e-20
 1.44509212e-20
 1.44509212e-20
 1.44509212e-20
 1.44509212e-20
 1.44509212e-20
 1.44509212e-20
 1.44509212e-20
 1.44509212e-20
 1.44509212e-20
 1.44509212e-20
 1.44509212e-20
 1.44509212e-20
 1.44509212e-20
 1.44509212e-20
 1.44509212e-20
 1.44509212e-20
 1.44509212e-20
 1.44509212e-20
 2.14131996e-19
 2.14131996e-19
 2.14131996e-19
 2.14131996e-19
 2.47948815e-18
 2.47948815e-18
 2.47948815e-18
 2.47948815e-18
 2.47948815e-18
 2.47948815e-18
 2.47948815e-18
 2.47948815e-18
 2.47948815e-18
 2.47948815e-18
 2.47948815e-18
 2.47948815e-18
 2.47948815e-18
 2.47948815e-18
 1.06354985e-19
 1.06354985e-19
 1.06354985e-19
 1.06354985e-19
 1.06354985e-19
 1.06354985e-19
 1.06354985e-19
 1.06354985e-19
 1.06354985e-19
 1.06354985e-19
 4.94304341e-18
 4.94304341e-18
 4.94304341e-18
 4.94304341e-18
 4.94304341e-18
 4.94304341e-18
 4.94304341e-18
 4.94304341e-18
 4.94304341e-18
 4.94304341e-18
 4.94304341e-18
 4.94304341e-18
 4.94304341e-18
 9.65336703e-18
 1.39122356e-17
 1.39122356e-17
 1.39122356e-17
 1.39122356e-17
 1.39122356e-17
 1.39122356e-17
 1.39122356e-17
 6.98108866e-18
 6.98108866e-18
 6.77473289e-19
 6.77473289e-19
 8.32208983e-21
 8.32208983e-21
 8.32208983e-21
 8.32208983e-21
 1.08700542e-19
 1.08700542e-19
 1.08700542e-19
 1.08700542e-19
)
)
1
(
101
(
 1.26911154e-20
 1.66698322e-20
 1.66698322e-20
 1.66698322e-20
 1.66698322e-20
 1.66698322e-20
 1.66698322e-20
 1.66698322e-20
 1.66698322e-20
 1.66698322e-20
 1.66698322e-20
 1.66698322e-20
 1.66698322e-20
 1.66698322e-20
 1.66698322e-20
 1.66698322e-20
 1.66698322e-20
 1.66698322e-20
 1.66698322e-20
 1.66698322e-20
 1.66698322e-20
 1.66698322e-20
 1.66698322e-20
 1.66698322e-20
 1.66698322e-20
 1.66698322e-20
 1.66698322e-20
 1.66698322e-20
 1.66698322e-20
 1.66698322e-20
 1.66698322e-20
 1.66698322e-20
 1.66698322e-20
 1.66698322e-20
 1.66698322e-20
 1.66698322e-20
 1.66698322e-20
 1.66698322e-20
 1.66698322e-20
 1.66698322e-20
 2.14131996e-19
 2.14131996e-19
 2.14131996e-19
 2.14131996e-19
 2.14131996e-19
 2.47948815e-18
 2.47948815e-18
 2.47948815e-18
 2.47948815e-18
 2.47948815e-18
 2.47948815e-18
 2.47948815e-18
 2.47948815e-18
 2.47948815e-18
 2.47948815e-18
 2.47948815e-18
 2.47948815e-18
 2.47948815e-18
 2.47948815e-18
 1.06354985e-19
 1.06354985e-19
 1.06354985e-19
 1.06354985e-19
 1.06354985e-19
 1.06354985e-19
 1.06354985e-19
 1.06354985e-19
 1.06354985e-19
 1.06354985e-19
 4.94304341e-18
 4.94304341e-18
 4.94304341e-18
 4.94304341e-18
 4.94304341e-18
 4.94304341e-18
 4.94304341e-18
 4.94304341e-18
 4.94304341e-18
 4.94304341e-18
 4.94304341e-18
 4.94304341e-18
 4.94304341e-18
 9.65336703e-18
 9.65336703e-18
 1.39122356e-17
 1.39122356e-17
 1.39122356e-17
 1.39122356e-17
 1.39122356e-17
 6.98108866e-18
 6.98108866e-18
 6.98108866e-18
 6.77473289e-19
 6.77473289e-19
 8.32208983e-21
 8.32208983e-21
 8.32208983e-21
 8.32208983e-21
 8.32208983e-21
 1.08700542e-19
 1.08700542e-19
)
)
1
(
101
(
 1.73218452e-20
 1.73218452e-20
 1.73218452e-20
 1.73218452e-20
 1.73218452e-20
 1.73218452e-20
 1.73218452e-20
 1.73218452e-20
 1.73218452e-20
 1.73218452e-20
 1.73218452e-20
 1.73218452e-20
 1.73218452e-20
 1.73218452e-20
 1.73218452e-20
 1.73218452e-20
 1.73218452e-20
 1.73218452e-20
 1.73218452e-20
 1.73218452e-20
 1.73218452e-20
 1.73218452e-20
 1.73218452e-20
 1.73218452e-20
 1.73218452e-20
 1.73218452e-20
 1.73218452e-20
 1.73218452e-20
 1.73218452e-20
 1.73218452e-20
 1.73218452e-20
 1.73218452e-20
 1.73218452e-20
 1.73218452e-20
 1.73218452e-20
 1.73218452e-20
 1.73218452e-20
 1.73218452e-20
 1.73218452e-20
 1.73218452e-20
 2.14131996e-19
 2.14131996e-19
 2.14131996e-19
 2.14131996e-19
 2.14131996e-19
 2.14131996e-19
 2.47948815e-18
 2.47948815e-18
 2.47948815e-18
 2.47948815e-18
 2.47948815e-18
 2.47948815e-18
 2.47948815e-18
 2.47948815e-18
 2.47948815e-18
 2.47948815e-18
 2.47948815e-18
 2.47948815e-18
 2.47948815e-18
 2.47948815e-18
 2.47948815e-18
 1.06354985e-19
 1.06354985e-19
 1.06354985e-19
 1.06354985e-19
 1.06354985e-19
 1.06354985e-19
 1.06354985e-19
 1.06354985e-19
 1.06354985e-19
 1.06354985e-19
 4.94304341e-18
 4.94304341e-18
 4.94304341e-18
 4.94304341e-18
 4.94304341e-18
 4.94304341e-18
 4.94304341e-18
 4.94304341e-18
 4.94304341e-18
 4.94304341e-18
 4.94304341e-18
 4.94304341e-18
 9.65336703e-18
 9.65336703e-18
 9.65336703e-18
 1.39122356e-17
 1.39122356e-17
 1.39122356e-17
 1.39122356e-17
 6.98108866e-18
 6.98108866e-18
 6.98108866e-18
 6.77473289e-19
 6.77473289e-19
 8.32208983e-21
 8.32208983e-21
 8.32208983e-21
 8.32208983e-21
 8.32208983e-21
 8.32208983e-21
)
)
1
(
101
(
 2.55707006e-20
 2.55707006e-20
 2.55707006e-20
 2.55707006e-20
 2.55707006e-20
 2.55707006e-20
 2.55707006e-20
 2.55707006e-20
 2.55707006e-20
 2.55707006e-20
 2.55707006e-20
 2.55707006e-20
 2.55707006e-20
 2.55707006e-20
 2.55707006e-20
 2.55707006e-20
 2.55707006e-20
 2.55707006e-20
 2.55707006e-20
 2.55707006e-20
 2.55707006e-20
 2.55707006e-20
 2.55707006e-20
 2.55707006e-20
 2.55707006e-20
 2.55707006e-20
 2.55707006e-20
 2.55707006e-20
 2.55707006e-20
 2.55707006e-20
 2.55707006e-20
 2.55707006e-20
 2.55707006e-20
 2.55707006e-20
 2.55707006e-20
 2.55707006e-20
 2.55707006e-20
 2.55707006e-20
 2.55707006e-20
 2.14131996e-19
 2.14131996e-19
 2.14131996e-19
 2.14131996e-19
 2.14131996e-19
 2.14131996e-19
 2.14131996e-19
 2.14131996e-19
 2.14131996e-19
 2.47948815e-18
 2.47948815e-18
 2.47948815e-18
 2.47948815e-18
 2.47948815e-18
 2.47948815e-18
 2.47948815e-18
 2.47948815e-18
 2.47948815e-18
 2.47948815e-18
 2.47948815e-18
 2.47948815e-18
 2.47948815e-18
 2.47948815e-18
 1.06354985e-19
 1.06354985e-19
 1.06354985e-19
 1.06354985e-19
 1.06354985e-19
 1.06354985e-19
 1.06354985e-19
 1.06354985e-19
 1.06354985e-19
 1.06354985e-19
 4.94304341e-18
 4.94304341e-18
 4.94304341e-18
 4.94304341e-18
 4.94304341e-18
 4.94304341e-18
 4.94304341e-18
 4.94304341e-18
 4.94304341e-18
 4.94304341e-18
 4.94304341e-18
 4.94304341e-18
 9.65336703e-18
 9.65336703e-18
 9.65336703e-18
 9.65336703e-18
 4.91422982e-18
 4.91422982e-18
 4.91422982e-18
 6.98108866e-18
 6.98108866e-18
 6.98108866e-18
 6.77473289e-19
 6.77473289e-19
 8.32208983e-21
 8.32208983e-21
 8.32208983e-21