/*--------------------------------*- C++ -*----------------------------------*\
| =========                 |                                                 |
| \\      /  F ield        | OpenFOAM: The Open Source CFD Toolbox           |
|  \\    /   O peration    | Version:  7                                     |
|   \\  /    A nd          | Web:      http://www.OpenFOAM.com               |
|    \\/     M anipulation |                                                 |
\*---------------------------------------------------------------------------*/

FoamFile
{
    version     2.0;
    format      ascii;
    class       dictionary;
    object      Y_C2H4_table;
}

Y_C2H4_table
2
(
101
(
1
(
101
(
 8.82859288e-16
 8.82859288e-16
 8.82859288e-16
 8.82859288e-16
 8.82859288e-16
 8.82859288e-16
 8.82859288e-16
 8.82859288e-16
 8.82859288e-16
 8.82859288e-16
 8.82859288e-16
 8.82859288e-16
 8.82859288e-16
 8.82859288e-16
 8.82859288e-16
 8.82859288e-16
 8.82859288e-16
 8.82859288e-16
 8.82859288e-16
 8.82859288e-16
 8.82859288e-16
 8.82859288e-16
 8.82859288e-16
 8.82859288e-16
 8.82859288e-16
 8.82859288e-16
 8.82859288e-16
 8.82859288e-16
 8.82859288e-16
 8.82859288e-16
 8.82859288e-16
 8.82859288e-16
 8.82859288e-16
 8.82859288e-16
 8.82859288e-16
 8.82859288e-16
 8.82859288e-16
 8.82859288e-16
 8.82859288e-16
 8.82859288e-16
 8.82859288e-16
 8.82859288e-16
 8.82859288e-16
 8.82859288e-16
 8.82859288e-16
 7.06896526e-04
 7.06896526e-04
 7.09114872e-04
 7.09114872e-04
 7.09114872e-04
 7.09114872e-04
 7.09114872e-04
 7.09114872e-04
 7.09114872e-04
 7.09114872e-04
 7.09114872e-04
 7.09114872e-04
 7.09114872e-04
 7.09114872e-04
 7.09114872e-04
 7.09114872e-04
 7.09114872e-04
 7.09114872e-04
 5.12157336e-04
 5.12157336e-04
 5.12157336e-04
 5.12157336e-04
 5.12157336e-04
 5.12157336e-04
 5.12157336e-04
 5.12157336e-04
 5.12157336e-04
 5.12157336e-04
 5.12157336e-04
 5.12157336e-04
 2.03615765e-04
 2.03615765e-04
 2.03615765e-04
 2.03615765e-04
 2.03615765e-04
 2.03615765e-04
 2.03615765e-04
 1.41471957e-04
 1.41471957e-04
 1.41471957e-04
 1.41471957e-04
 1.41471957e-04
 1.41471957e-04
 7.59037801e-05
 7.59037801e-05
 7.59037801e-05
 7.59037801e-05
 7.59037801e-05
 7.59037801e-05
 7.59037801e-05
 1.21303375e-05
 1.21303375e-05
 1.21303375e-05
 1.21303375e-05
 1.21303375e-05
 1.07816141e-07
)
)
1
(
101
(
 7.95492071e-14
 7.95492071e-14
 7.95492071e-14
 7.95492071e-14
 7.95492071e-14
 7.95492071e-14
 7.95492071e-14
 7.95492071e-14
 7.95492071e-14
 7.95492071e-14
 7.95492071e-14
 7.95492071e-14
 7.95492071e-14
 7.95492071e-14
 7.95492071e-14
 7.95492071e-14
 7.95492071e-14
 7.95492071e-14
 7.95492071e-14
 7.95492071e-14
 7.95492071e-14
 7.95492071e-14
 7.95492071e-14
 7.95492071e-14
 7.95492071e-14
 7.95492071e-14
 7.95492071e-14
 7.95492071e-14
 7.95492071e-14
 7.95492071e-14
 7.95492071e-14
 7.95492071e-14
 7.95492071e-14
 7.95492071e-14
 7.95492071e-14
 7.95492071e-14
 7.95492071e-14
 7.95492071e-14
 7.95492071e-14
 7.95492071e-14
 7.95492071e-14
 7.95492071e-14
 7.95492071e-14
 7.95492071e-14
 7.95492071e-14
 7.06896526e-04
 7.06896526e-04
 7.06896526e-04
 7.09114872e-04
 7.09114872e-04
 7.09114872e-04
 7.09114872e-04
 7.09114872e-04
 7.09114872e-04
 7.09114872e-04
 7.09114872e-04
 7.09114872e-04
 7.09114872e-04
 7.09114872e-04
 7.09114872e-04
 7.09114872e-04
 7.09114872e-04
 7.09114872e-04
 7.09114872e-04
 7.09114872e-04
 5.12157336e-04
 5.12157336e-04
 5.12157336e-04
 5.12157336e-04
 5.12157336e-04
 5.12157336e-04
 5.12157336e-04
 5.12157336e-04
 5.12157336e-04
 5.12157336e-04
 5.12157336e-04
 5.12157336e-04
 2.03615765e-04
 2.03615765e-04
 2.03615765e-04
 2.03615765e-04
 2.03615765e-04
 2.03615765e-04
 1.41471957e-04
 1.41471957e-04
 1.41471957e-04
 1.41471957e-04
 1.41471957e-04
 1.41471957e-04
 1.41471957e-04
 7.59037801e-05
 7.59037801e-05
 7.59037801e-05
 7.59037801e-05
 7.59037801e-05
 7.59037801e-05
 4.05184004e-05
 1.21303375e-05
 1.21303375e-05
 1.21303375e-05
 5.14777437e-06
)
)
1
(
101
(
 2.26427324e-13
 2.26427324e-13
 2.26427324e-13
 2.26427324e-13
 2.26427324e-13
 2.26427324e-13
 2.26427324e-13
 2.26427324e-13
 2.26427324e-13
 2.26427324e-13
 2.26427324e-13
 2.26427324e-13
 2.26427324e-13
 2.26427324e-13
 2.26427324e-13
 2.26427324e-13
 2.26427324e-13
 2.26427324e-13
 2.26427324e-13
 2.26427324e-13
 2.26427324e-13
 2.26427324e-13
 2.26427324e-13
 2.26427324e-13
 2.26427324e-13
 2.26427324e-13
 2.26427324e-13
 2.26427324e-13
 2.26427324e-13
 2.26427324e-13
 2.26427324e-13
 2.26427324e-13
 2.26427324e-13
 2.26427324e-13
 2.26427324e-13
 2.26427324e-13
 2.26427324e-13
 2.26427324e-13
 2.26427324e-13
 2.26427324e-13
 2.26427324e-13
 2.26427324e-13
 2.26427324e-13
 2.26427324e-13
 7.06896526e-04
 7.06896526e-04
 7.06896526e-04
 7.06896526e-04
 7.06896526e-04
 7.06896526e-04
 7.09114872e-04
 7.09114872e-04
 7.09114872e-04
 7.09114872e-04
 7.09114872e-04
 7.09114872e-04
 7.09114872e-04
 7.09114872e-04
 7.09114872e-04
 7.09114872e-04
 7.09114872e-04
 7.09114872e-04
 7.09114872e-04
 7.09114872e-04
 7.09114872e-04
 7.09114872e-04
 5.12157336e-04
 5.12157336e-04
 5.12157336e-04
 5.12157336e-04
 5.12157336e-04
 5.12157336e-04
 5.12157336e-04
 5.12157336e-04
 5.12157336e-04
 5.12157336e-04
 5.12157336e-04
 5.12157336e-04
 2.03615765e-04
 2.03615765e-04
 2.03615765e-04
 2.03615765e-04
 2.03615765e-04
 2.03615765e-04
 2.03615765e-04
 1.41471957e-04
 1.41471957e-04
 1.41471957e-04
 1.41471957e-04
 1.41471957e-04
 1.41471957e-04
 7.59037801e-05
 7.59037801e-05
 7.59037801e-05
 7.59037801e-05
 7.59037801e-05
 7.59037801e-05
 4.05184004e-05
 4.05184004e-05
 1.98707788e-05
 1.98707788e-05
)
)
1
(
101
(
 2.83562596e-13
 2.83562596e-13
 2.83562596e-13
 2.83562596e-13
 2.83562596e-13
 2.83562596e-13
 2.83562596e-13
 2.83562596e-13
 2.83562596e-13
 2.83562596e-13
 2.83562596e-13
 2.83562596e-13
 2.83562596e-13
 2.83562596e-13
 2.83562596e-13
 2.83562596e-13
 2.83562596e-13
 2.83562596e-13
 2.83562596e-13
 2.83562596e-13
 2.83562596e-13
 2.83562596e-13
 2.83562596e-13
 2.83562596e-13
 2.83562596e-13
 2.83562596e-13
 2.83562596e-13
 2.83562596e-13
 2.83562596e-13
 2.83562596e-13
 2.83562596e-13
 2.83562596e-13
 2.83562596e-13
 2.83562596e-13
 2.83562596e-13
 2.83562596e-13
 2.83562596e-13
 2.83562596e-13
 2.83562596e-13
 2.83562596e-13
 2.83562596e-13
 2.83562596e-13
 2.83562596e-13
 2.83562596e-13
 8.70972241e-04
 7.06896526e-04
 7.06896526e-04
 7.06896526e-04
 7.06896526e-04
 7.06896526e-04
 7.06896526e-04
 7.09114872e-04
 7.09114872e-04
 7.09114872e-04
 7.09114872e-04
 7.09114872e-04
 7.09114872e-04
 7.09114872e-04
 7.09114872e-04
 7.09114872e-04
 7.09114872e-04
 7.09114872e-04
 7.09114872e-04
 7.09114872e-04
 7.09114872e-04
 7.09114872e-04
 7.09114872e-04
 5.12157336e-04
 5.12157336e-04
 5.12157336e-04
 5.12157336e-04
 5.12157336e-04
 5.12157336e-04
 5.12157336e-04
 5.12157336e-04
 5.12157336e-04
 5.12157336e-04
 5.12157336e-04
 5.12157336e-04
 2.78118511e-04
 2.03615765e-04
 2.03615765e-04
 2.03615765e-04
 2.03615765e-04
 2.03615765e-04
 2.03615765e-04
 1.41471957e-04
 1.41471957e-04
 1.41471957e-04
 1.41471957e-04
 1.41471957e-04
 1.41471957e-04
 1.41471957e-04
 7.59037801e-05
 7.59037801e-05
 7.59037801e-05
 7.59037801e-05
 7.59037801e-05
 4.05184004e-05
 2.04834838e-05
 2.04834838e-05
)
)
1
(
101
(
 4.59171744e-13
 4.59171744e-13
 4.59171744e-13
 4.59171744e-13
 4.59171744e-13
 4.59171744e-13
 4.59171744e-13
 4.59171744e-13
 4.59171744e-13
 4.59171744e-13
 4.59171744e-13
 4.59171744e-13
 4.59171744e-13
 4.59171744e-13
 4.59171744e-13
 4.59171744e-13
 4.59171744e-13
 4.59171744e-13
 4.59171744e-13
 4.59171744e-13
 4.59171744e-13
 4.59171744e-13
 4.59171744e-13
 4.59171744e-13
 4.59171744e-13
 4.59171744e-13
 4.59171744e-13
 4.59171744e-13
 4.59171744e-13
 4.59171744e-13
 4.59171744e-13
 4.59171744e-13
 4.59171744e-13
 4.59171744e-13
 4.59171744e-13
 4.59171744e-13
 4.59171744e-13
 4.59171744e-13
 4.59171744e-13
 4.59171744e-13
 4.59171744e-13
 4.59171744e-13
 4.59171744e-13
 4.59171744e-13
 8.70972241e-04
 8.70972241e-04
 8.70972241e-04
 7.06896526e-04
 7.06896526e-04
 7.06896526e-04
 7.06896526e-04
 7.06896526e-04
 7.06896526e-04
 7.09114872e-04
 7.09114872e-04
 7.09114872e-04
 7.09114872e-04
 7.09114872e-04
 7.09114872e-04
 7.09114872e-04
 7.09114872e-04
 7.09114872e-04
 7.09114872e-04
 7.09114872e-04
 7.09114872e-04
 7.09114872e-04
 7.09114872e-04
 7.09114872e-04
 5.12157336e-04
 5.12157336e-04
 5.12157336e-04
 5.12157336e-04
 5.12157336e-04
 5.12157336e-04
 5.12157336e-04
 5.12157336e-04
 5.12157336e-04
 5.12157336e-04
 5.12157336e-04
 5.12157336e-04
 2.78118511e-04
 2.03615765e-04
 2.03615765e-04
 2.03615765e-04
 2.03615765e-04
 2.03615765e-04
 2.03615765e-04
 2.03615765e-04
 1.41471957e-04
 1.41471957e-04
 1.41471957e-04
 1.41471957e-04
 1.41471957e-04
 1.41471957e-04
 8.71930068e-05
 7.59037801e-05
 7.59037801e-05
 7.59037801e-05
 4.37308511e-05
 4.37308511e-05
 2.04834838e-05
)
)
1
(
101
(
 4.52633912e-13
 4.52633912e-13
 4.52633912e-13
 4.52633912e-13
 4.52633912e-13
 4.52633912e-13
 4.52633912e-13
 4.52633912e-13
 4.52633912e-13
 4.52633912e-13
 4.52633912e-13
 4.52633912e-13
 4.52633912e-13
 4.52633912e-13
 4.52633912e-13
 4.52633912e-13
 4.52633912e-13
 4.52633912e-13
 4.52633912e-13
 4.52633912e-13
 4.52633912e-13
 4.52633912e-13
 4.52633912e-13
 4.52633912e-13
 4.52633912e-13
 4.52633912e-13
 4.52633912e-13
 4.52633912e-13
 4.52633912e-13
 4.52633912e-13
 4.52633912e-13
 4.52633912e-13
 4.52633912e-13
 4.52633912e-13
 4.52633912e-13
 4.52633912e-13
 4.52633912e-13
 4.52633912e-13
 4.52633912e-13
 4.52633912e-13
 4.52633912e-13
 4.52633912e-13
 1.31182963e-12
 8.70972241e-04
 8.70972241e-04
 8.70972241e-04
 8.70972241e-04
 8.70972241e-04
 7.06896526e-04
 7.06896526e-04
 7.06896526e-04
 7.06896526e-04
 7.06896526e-04
 7.06896526e-04
 7.09114872e-04
 7.09114872e-04
 7.09114872e-04
 7.09114872e-04
 7.09114872e-04
 7.09114872e-04
 7.09114872e-04
 7.09114872e-04
 7.09114872e-04
 7.09114872e-04
 7.09114872e-04
 7.09114872e-04
 7.09114872e-04
 7.09114872e-04
 7.09114872e-04
 7.09114872e-04
 5.12157336e-04
 5.12157336e-04
 5.12157336e-04
 5.12157336e-04
 5.12157336e-04
 5.12157336e-04
 5.12157336e-04
 5.12157336e-04
 5.12157336e-04
 5.12157336e-04
 5.12157336e-04
 2.78118511e-04
 2.78118511e-04
 2.03615765e-04
 2.03615765e-04
 2.03615765e-04
 2.03615765e-04
 2.03615765e-04
 2.03615765e-04
 1.41471957e-04
 1.41471957e-04
 1.41471957e-04
 1.41471957e-04
 1.41471957e-04
 1.41471957e-04
 8.71930068e-05
 8.71930068e-05
 6.60683242e-05
 6.60683242e-05
 4.37308511e-05
 4.37308511e-05
)
)
1
(
101
(
 8.94397352e-13
 8.94397352e-13
 8.94397352e-13
 8.94397352e-13
 8.94397352e-13
 8.94397352e-13
 8.94397352e-13
 8.94397352e-13
 8.94397352e-13
 8.94397352e-13
 8.94397352e-13
 8.94397352e-13
 8.94397352e-13
 8.94397352e-13
 8.94397352e-13
 8.94397352e-13
 8.94397352e-13
 8.94397352e-13
 8.94397352e-13
 8.94397352e-13
 8.94397352e-13
 8.94397352e-13
 8.94397352e-13
 8.94397352e-13
 8.94397352e-13
 8.94397352e-13
 8.94397352e-13
 8.94397352e-13
 8.94397352e-13
 8.94397352e-13
 8.94397352e-13
 8.94397352e-13
 8.94397352e-13
 1.31182963e-12
 1.31182963e-12
 1.31182963e-12
 1.31182963e-12
 1.31182963e-12
 1.31182963e-12
 1.31182963e-12
 1.31182963e-12
 1.31182963e-12
 1.31182963e-12
 8.70972241e-04
 8.70972241e-04
 8.70972241e-04
 8.70972241e-04
 8.70972241e-04
 8.70972241e-04
 7.06896526e-04
 7.06896526e-04
 7.06896526e-04
 7.06896526e-04
 7.06896526e-04
 7.06896526e-04
 7.06896526e-04
 7.09114872e-04
 7.09114872e-04
 7.09114872e-04
 7.09114872e-04
 7.09114872e-04
 7.09114872e-04
 7.09114872e-04
 7.09114872e-04
 7.09114872e-04
 7.09114872e-04
 7.09114872e-04
 7.09114872e-04
 7.09114872e-04
 7.09114872e-04
 7.09114872e-04
 5.12157336e-04
 5.12157336e-04
 5.12157336e-04
 5.12157336e-04
 5.12157336e-04
 5.12157336e-04
 5.12157336e-04
 5.12157336e-04
 5.12157336e-04
 5.12157336e-04
 5.12157336e-04
 2.78118511e-04
 2.78118511e-04
 2.03615765e-04
 2.03615765e-04
 2.03615765e-04
 2.03615765e-04
 2.03615765e-04
 2.03615765e-04
 2.03615765e-04
 1.41471957e-04
 1.41471957e-04
 1.41471957e-04
 1.41471957e-04
 1.41471957e-04
 8.71930068e-05
 8.71930068e-05
 6.60683242e-05
 6.60683242e-05
 4.37308511e-05
)
)
1
(
101
(
 7.86906102e-13
 7.86906102e-13
 7.86906102e-13
 7.86906102e-13
 7.86906102e-13
 7.86906102e-13
 7.86906102e-13
 7.86906102e-13
 7.86906102e-13
 7.86906102e-13
 7.86906102e-13
 7.86906102e-13
 7.86906102e-13
 7.86906102e-13
 7.86906102e-13
 7.86906102e-13
 7.86906102e-13
 7.86906102e-13
 7.86906102e-13
 7.86906102e-13
 7.86906102e-13
 7.86906102e-13
 7.86906102e-13
 7.86906102e-13
 7.86906102e-13
 7.86906102e-13
 1.31182963e-12
 1.31182963e-12
 1.31182963e-12
 1.31182963e-12
 1.31182963e-12
 1.31182963e-12
 1.31182963e-12
 1.31182963e-12
 1.31182963e-12
 1.31182963e-12
 1.31182963e-12
 1.31182963e-12
 1.31182963e-12
 1.31182963e-12
 1.31182963e-12
 1.31182963e-12
 1.31182963e-12
 8.70972241e-04
 8.70972241e-04
 8.70972241e-04
 8.70972241e-04
 8.70972241e-04
 8.70972241e-04
 8.70972241e-04
 7.06896526e-04
 7.06896526e-04
 7.06896526e-04
 7.06896526e-04
 7.06896526e-04
 7.06896526e-04
 7.06896526e-04
 7.09114872e-04
 7.09114872e-04
 7.09114872e-04
 7.09114872e-04
 7.09114872e-04
 7.09114872e-04
 7.09114872e-04
 7.09114872e-04
 7.09114872e-04
 7.09114872e-04
 7.09114872e-04
 7.09114872e-04
 7.09114872e-04
 7.09114872e-04
 7.09114872e-04
 5.12157336e-04
 5.12157336e-04
 5.12157336e-04
 5.12157336e-04
 5.12157336e-04
 5.12157336e-04
 5.12157336e-04
 5.12157336e-04
 5.12157336e-04
 5.12157336e-04
 5.12157336e-04
 2.78118511e-04
 2.78118511e-04
 2.78118511e-04
 2.03615765e-04
 2.03615765e-04
 2.03615765e-04
 2.03615765e-04
 2.03615765e-04
 2.03615765e-04
 1.64572752e-04
 1.41471957e-04
 1.41471957e-04
 1.41471957e-04
 9.37200071e-05
 9.37200071e-05
 9.37200071e-05
 6.60683242e-05
 6.60683242e-05
)
)
1
(
101
(
 8.78474524e-13
 8.78474524e-13
 8.78474524e-13
 8.78474524e-13
 8.78474524e-13
 8.78474524e-13
 8.78474524e-13
 8.78474524e-13
 8.78474524e-13
 8.78474524e-13
 8.78474524e-13
 8.78474524e-13
 8.78474524e-13
 8.78474524e-13
 8.78474524e-13
 8.78474524e-13
 8.78474524e-13
 8.78474524e-13
 8.78474524e-13
 1.31182963e-12
 1.31182963e-12
 1.31182963e-12
 1.31182963e-12
 1.31182963e-12
 1.31182963e-12
 1.31182963e-12
 1.31182963e-12
 1.31182963e-12
 1.31182963e-12
 1.31182963e-12
 1.31182963e-12
 1.31182963e-12
 1.31182963e-12
 1.31182963e-12
 1.31182963e-12
 1.31182963e-12
 1.31182963e-12
 1.31182963e-12
 1.31182963e-12
 1.31182963e-12
 1.31182963e-12
 1.31182963e-12
 8.70972241e-04
 8.70972241e-04
 8.70972241e-04
 8.70972241e-04
 8.70972241e-04
 8.70972241e-04
 8.70972241e-04
 8.70972241e-04
 8.70972241e-04
 7.06896526e-04
 7.06896526e-04
 7.06896526e-04
 7.06896526e-04
 7.06896526e-04
 7.06896526e-04
 7.06896526e-04
 7.06896526e-04
 7.09114872e-04
 7.09114872e-04
 7.09114872e-04
 7.09114872e-04
 7.09114872e-04
 7.09114872e-04
 7.09114872e-04
 7.09114872e-04
 7.09114872e-04
 7.09114872e-04
 7.09114872e-04
 7.09114872e-04
 7.09114872e-04
 7.09114872e-04
 5.12157336e-04
 5.12157336e-04
 5.12157336e-04
 5.12157336e-04
 5.12157336e-04
 5.12157336e-04
 5.12157336e-04
 5.12157336e-04
 5.12157336e-04
 5.12157336e-04
 5.12157336e-04
 2.78118511e-04
 2.78118511e-04
 2.78118511e-04
 2.03615765e-04
 2.03615765e-04
 2.03615765e-04
 2.03615765e-04
 2.03615765e-04
 2.03615765e-04
 1.64572752e-04
 1.64572752e-04
 1.11123646e-04
 1.11123646e-04
 9.37200071e-05
 9.37200071e-05
 9.37200071e-05
 9.37200071e-05
)
)
1
(
101
(
 1.84988934e-12
 1.84988934e-12
 1.84988934e-12
 1.84988934e-12
 1.84988934e-12
 1.84988934e-12
 1.84988934e-12
 1.84988934e-12
 1.84988934e-12
 1.84988934e-12
 1.84988934e-12
 1.84988934e-12
 1.84988934e-12
 1.84988934e-12
 1.31182963e-12
 1.31182963e-12
 1.31182963e-12
 1.31182963e-12
 1.31182963e-12
 1.31182963e-12
 1.31182963e-12
 1.31182963e-12
 1.31182963e-12
 1.31182963e-12
 1.31182963e-12
 1.31182963e-12
 1.31182963e-12
 1.31182963e-12
 1.31182963e-12
 1.31182963e-12
 1.31182963e-12
 1.31182963e-12
 1.31182963e-12
 1.31182963e-12
 1.31182963e-12
 1.31182963e-12
 1.31182963e-12
 1.31182963e-12
 1.31182963e-12
 1.31182963e-12
 1.31182963e-12
 1.31182963e-12
 8.70972241e-04
 8.70972241e-04
 8.70972241e-04
 8.70972241e-04
 8.70972241e-04
 8.70972241e-04
 8.70972241e-04
 8.70972241e-04
 8.70972241e-04
 8.70972241e-04
 7.06896526e-04
 7.06896526e-04
 7.06896526e-04
 7.06896526e-04
 7.06896526e-04
 7.06896526e-04
 7.06896526e-04
 7.06896526e-04
 7.09114872e-04
 7.09114872e-04
 7.09114872e-04
 7.09114872e-04
 7.09114872e-04
 7.09114872e-04
 7.09114872e-04
 7.09114872e-04
 7.09114872e-04
 7.09114872e-04
 7.09114872e-04
 7.09114872e-04
 7.09114872e-04
 7.09114872e-04
 7.09114872e-04
 5.12157336e-04
 5.12157336e-04
 5.12157336e-04
 5.12157336e-04
 5.12157336e-04
 5.12157336e-04
 5.12157336e-04
 5.12157336e-04
 5.12157336e-04
 5.12157336e-04
 2.78118511e-04
 2.78118511e-04
 2.78118511e-04
 2.78118511e-04
 2.03615765e-04
 2.03615765e-04
 2.03615765e-04
 2.03615765e-04
 2.03615765e-04
 1.64572752e-04
 1.64572752e-04
 1.11123646e-04
 1.11123646e-04
 9.37200071e-05
 9.37200071e-05
 9.37200071e-05
)
)
1
(
101
(
 1.35986819e-12
 1.35986819e-12
 1.35986819e-12
 1.35986819e-12
 1.35986819e-12
 1.35986819e-12
 1.35986819e-12
 1.35986819e-12
 1.35986819e-12
 1.31182963e-12
 1.31182963e-12
 1.31182963e-12
 1.31182963e-12
 1.31182963e-12
 1.31182963e-12
 1.31182963e-12
 1.31182963e-12
 1.31182963e-12
 1.31182963e-12
 1.31182963e-12
 1.31182963e-12
 1.31182963e-12
 1.31182963e-12
 1.31182963e-12
 1.31182963e-12
 1.31182963e-12
 1.31182963e-12
 1.31182963e-12
 1.31182963e-12
 1.31182963e-12
 1.31182963e-12
 1.31182963e-12
 1.31182963e-12
 1.31182963e-12
 1.31182963e-12
 1.31182963e-12
 1.31182963e-12
 1.31182963e-12
 1.31182963e-12
 1.31182963e-12
 1.31182963e-12
 1.31182963e-12
 8.70972241e-04
 8.70972241e-04
 8.70972241e-04
 8.70972241e-04
 8.70972241e-04
 8.70972241e-04
 8.70972241e-04
 8.70972241e-04
 8.70972241e-04
 8.70972241e-04
 8.70972241e-04
 8.70972241e-04
 7.06896526e-04
 7.06896526e-04
 7.06896526e-04
 7.06896526e-04
 7.06896526e-04
 7.06896526e-04
 7.06896526e-04
 7.06896526e-04
 7.09114872e-04
 7.09114872e-04
 7.09114872e-04
 7.09114872e-04
 7.09114872e-04
 7.09114872e-04
 7.09114872e-04
 7.09114872e-04
 7.09114872e-04
 7.09114872e-04
 7.09114872e-04
 7.09114872e-04
 7.09114872e-04
 7.09114872e-04
 5.12157336e-04
 5.12157336e-04
 5.12157336e-04
 5.12157336e-04
 5.12157336e-04
 5.12157336e-04
 5.12157336e-04
 5.12157336e-04
 5.12157336e-04
 5.12157336e-04
 2.78118511e-04
 2.78118511e-04
 2.78118511e-04
 2.78118511e-04
 2.23435029e-04
 2.03615765e-04
 2.03615765e-04
 2.03615765e-04
 2.03615765e-04
 1.64572752e-04
 1.64572752e-04
 1.11123646e-04
 1.11123646e-04
 9.37200071e-05
 9.37200071e-05
)
)
1
(
101
(
 1.58539560e-12
 1.58539560e-12
 1.58539560e-12
 1.58539560e-12
 1.58539560e-12
 1.58539560e-12
 1.31182963e-12
 1.31182963e-12
 1.31182963e-12
 1.31182963e-12
 1.31182963e-12
 1.31182963e-12
 1.31182963e-12
 1.31182963e-12
 1.31182963e-12
 1.31182963e-12
 1.31182963e-12
 1.31182963e-12
 1.31182963e-12
 1.31182963e-12
 1.31182963e-12
 1.31182963e-12
 1.31182963e-12
 1.31182963e-12
 1.31182963e-12
 1.31182963e-12
 1.31182963e-12
 1.31182963e-12
 1.31182963e-12
 1.31182963e-12
 1.31182963e-12
 1.31182963e-12
 1.31182963e-12
 1.31182963e-12
 1.31182963e-12
 1.31182963e-12
 1.31182963e-12
 1.31182963e-12
 1.31182963e-12
 1.31182963e-12
 1.31182963e-12
 1.31182963e-12
 8.70972241e-04
 8.70972241e-04
 8.70972241e-04
 8.70972241e-04
 8.70972241e-04
 8.70972241e-04
 8.70972241e-04
 8.70972241e-04
 8.70972241e-04
 8.70972241e-04
 8.70972241e-04
 8.70972241e-04
 8.70972241e-04
 7.06896526e-04
 7.06896526e-04
 7.06896526e-04
 7.06896526e-04
 7.06896526e-04
 7.06896526e-04
 7.06896526e-04
 7.06896526e-04
 7.09114872e-04
 7.09114872e-04
 7.09114872e-04
 7.09114872e-04
 7.09114872e-04
 7.09114872e-04
 7.09114872e-04
 7.09114872e-04
 7.09114872e-04
 7.09114872e-04
 7.09114872e-04
 7.09114872e-04
 7.09114872e-04
 7.09114872e-04
 5.12157336e-04
 5.12157336e-04
 5.12157336e-04
 5.12157336e-04
 5.12157336e-04
 5.12157336e-04
 5.12157336e-04
 5.12157336e-04
 5.12157336e-04
 5.12157336e-04
 2.78118511e-04
 2.78118511e-04
 2.78118511e-04
 2.78118511e-04
 2.23435029e-04
 2.23435029e-04
 1.62382089e-04
 1.62382089e-04
 1.62382089e-04
 1.64572752e-04
 1.64572752e-04
 1.11123646e-04
 1.11123646e-04
 9.37200071e-05
)
)
1
(
101
(
 1.98236291e-12
 1.98236291e-12
 1.98236291e-12
 1.31182963e-12
 1.31182963e-12
 1.31182963e-12
 1.31182963e-12
 1.31182963e-12
 1.31182963e-12
 1.31182963e-12
 1.31182963e-12
 1.31182963e-12
 1.31182963e-12
 1.31182963e-12
 1.31182963e-12
 1.31182963e-12
 1.31182963e-12
 1.31182963e-12
 1.31182963e-12
 1.31182963e-12
 1.31182963e-12
 1.31182963e-12
 1.31182963e-12
 1.31182963e-12
 1.31182963e-12
 1.31182963e-12
 1.31182963e-12
 1.31182963e-12
 1.31182963e-12
 1.31182963e-12
 1.31182963e-12
 1.31182963e-12
 1.31182963e-12
 1.31182963e-12
 1.31182963e-12
 1.31182963e-12
 1.31182963e-12
 1.31182963e-12
 1.31182963e-12
 1.31182963e-12
 1.31182963e-12
 9.29744423e-04
 8.70972241e-04
 8.70972241e-04
 8.70972241e-04
 8.70972241e-04
 8.70972241e-04
 8.70972241e-04
 8.70972241e-04
 8.70972241e-04
 8.70972241e-04
 8.70972241e-04
 8.70972241e-04
 8.70972241e-04
 8.70972241e-04
 8.70972241e-04
 7.06896526e-04
 7.06896526e-04
 7.06896526e-04
 7.06896526e-04
 7.06896526e-04
 7.06896526e-04
 7.06896526e-04
 7.06896526e-04
 7.06896526e-04
 7.09114872e-04
 7.09114872e-04
 7.09114872e-04
 7.09114872e-04
 7.09114872e-04
 7.09114872e-04
 7.09114872e-04
 7.09114872e-04
 7.09114872e-04
 7.09114872e-04
 7.09114872e-04
 7.09114872e-04
 7.09114872e-04
 5.12157336e-04
 5.12157336e-04
 5.12157336e-04
 5.12157336e-04
 5.12157336e-04
 5.12157336e-04
 5.12157336e-04
 5.12157336e-04
 5.12157336e-04
 5.12157336e-04
 2.78118511e-04
 2.78118511e-04
 2.78118511e-04
 2.78118511e-04
 2.23435029e-04
 2.23435029e-04
 1.62382089e-04
 1.62382089e-04
 1.62382089e-04
 1.62382089e-04
 1.64572752e-04
 1.11123646e-04
 1.11123646e-04
)
)
1
(
101
(
 4.19823361e-13
 4.19823361e-13
 1.31182963e-12
 1.31182963e-12
 1.31182963e-12
 1.31182963e-12
 1.31182963e-12
 1.31182963e-12
 1.31182963e-12
 1.31182963e-12
 1.31182963e-12
 1.31182963e-12
 1.31182963e-12
 1.31182963e-12
 1.31182963e-12
 1.31182963e-12
 1.31182963e-12
 1.31182963e-12
 1.31182963e-12
 1.31182963e-12
 1.31182963e-12
 1.31182963e-12
 1.31182963e-12
 1.31182963e-12
 1.31182963e-12
 1.31182963e-12
 1.31182963e-12
 1.31182963e-12
 1.31182963e-12
 1.31182963e-12
 1.31182963e-12
 1.31182963e-12
 1.31182963e-12
 1.31182963e-12
 1.31182963e-12
 1.31182963e-12
 1.31182963e-12
 1.31182963e-12
 1.31182963e-12
 1.31182963e-12
 1.31182963e-12
 9.29744423e-04
 9.29744423e-04
 8.70972241e-04
 8.70972241e-04
 8.70972241e-04
 8.70972241e-04
 8.70972241e-04
 8.70972241e-04
 8.70972241e-04
 8.70972241e-04
 8.70972241e-04
 8.70972241e-04
 8.70972241e-04
 8.70972241e-04
 8.70972241e-04
 8.70972241e-04
 7.06896526e-04
 7.06896526e-04
 7.06896526e-04
 7.06896526e-04
 7.06896526e-04
 7.06896526e-04
 7.06896526e-04
 7.06896526e-04
 7.06896526e-04
 7.09114872e-04
 7.09114872e-04
 7.09114872e-04
 7.09114872e-04
 7.09114872e-04
 7.09114872e-04
 7.09114872e-04
 7.09114872e-04
 7.09114872e-04
 7.09114872e-04
 7.09114872e-04
 7.09114872e-04
 7.09114872e-04
 7.09114872e-04
 5.12157336e-04
 5.12157336e-04
 5.12157336e-04
 5.12157336e-04
 5.12157336e-04
 5.12157336e-04
 5.12157336e-04
 5.12157336e-04
 2.85813430e-04
 2.78118511e-04
 2.78118511e-04
 2.78118511e-04
 1.38788901e-04
 1.38788901e-04
 1.38788901e-04
 1.62382089e-04
 1.62382089e-04
 1.62382089e-04
 1.62382089e-04
 1.62382089e-04
 1.11123646e-04
)
)
1
(
101
(
 3.43353194e-21
 1.31182963e-12
 1.31182963e-12
 1.31182963e-12
 1.31182963e-12
 1.31182963e-12
 1.31182963e-12
 1.31182963e-12
 1.31182963e-12
 1.31182963e-12
 1.31182963e-12
 1.31182963e-12
 1.31182963e-12
 1.31182963e-12
 1.31182963e-12
 1.31182963e-12
 1.31182963e-12
 1.31182963e-12
 1.31182963e-12
 1.31182963e-12
 1.31182963e-12
 1.31182963e-12
 1.31182963e-12
 1.31182963e-12
 1.31182963e-12
 1.31182963e-12
 1.31182963e-12
 1.31182963e-12
 1.31182963e-12
 1.31182963e-12
 1.31182963e-12
 1.31182963e-12
 1.31182963e-12
 1.31182963e-12
 1.31182963e-12
 1.31182963e-12
 1.31182963e-12
 1.31182963e-12
 1.31182963e-12
 1.31182963e-12
 9.29744423e-04
 9.29744423e-04
 9.29744423e-04
 9.29744423e-04
 8.70972241e-04
 8.70972241e-04
 8.70972241e-04
 8.70972241e-04
 8.70972241e-04
 8.70972241e-04
 8.70972241e-04
 8.70972241e-04
 8.70972241e-04
 8.70972241e-04
 8.70972241e-04
 8.70972241e-04
 8.70972241e-04
 8.70972241e-04
 7.06896526e-04
 7.06896526e-04
 7.06896526e-04
 7.06896526e-04
 7.06896526e-04
 7.06896526e-04
 7.06896526e-04
 7.06896526e-04
 7.06896526e-04
 7.06896526e-04
 7.09114872e-04
 7.09114872e-04
 7.09114872e-04
 7.09114872e-04
 7.09114872e-04
 7.09114872e-04
 7.09114872e-04
 7.09114872e-04
 7.09114872e-04
 7.09114872e-04
 7.09114872e-04
 7.09114872e-04
 7.09114872e-04
 4.54692637e-04
 5.12157336e-04
 5.12157336e-04
 5.12157336e-04
 5.12157336e-04
 5.12157336e-04
 5.12157336e-04
 5.12157336e-04
 2.85813430e-04
 2.85813430e-04
 2.24522673e-04
 2.24522673e-04
 1.38788901e-04
 1.38788901e-04
 1.38788901e-04
 1.38788901e-04
 1.62382089e-04
 1.62382089e-04
 1.62382089e-04
 1.62382089e-04
)
)
1
(
101
(
 3.43353194e-21
 2.33962476e-12
 2.33962476e-12
 2.33962476e-12
 2.33962476e-12
 2.33962476e-12
 2.33962476e-12
 2.33962476e-12
 2.33962476e-12
 2.33962476e-12
 2.33962476e-12
 2.33962476e-12
 2.33962476e-12
 2.33962476e-12
 2.33962476e-12
 2.33962476e-12
 2.33962476e-12
 2.33962476e-12
 2.33962476e-12
 2.33962476e-12
 2.33962476e-12
 2.33962476e-12
 2.33962476e-12
 2.33962476e-12
 2.33962476e-12
 2.33962476e-12
 2.33962476e-12
 2.33962476e-12
 2.33962476e-12
 2.33962476e-12
 2.33962476e-12
 2.33962476e-12
 2.33962476e-12
 2.33962476e-12
 2.33962476e-12
 2.33962476e-12
 2.33962476e-12
 2.33962476e-12
 2.33962476e-12
 2.33962476e-12
 9.29744423e-04
 9.29744423e-04
 9.29744423e-04
 9.29744423e-04
 9.29744423e-04
 8.70972241e-04
 8.70972241e-04
 8.70972241e-04
 8.70972241e-04
 8.70972241e-04
 8.70972241e-04
 8.70972241e-04
 8.70972241e-04
 8.70972241e-04
 8.70972241e-04
 8.70972241e-04
 8.70972241e-04
 8.70972241e-04
 8.70972241e-04
 7.06896526e-04
 7.06896526e-04
 7.06896526e-04
 7.06896526e-04
 7.06896526e-04
 7.06896526e-04
 7.06896526e-04
 7.06896526e-04
 7.06896526e-04
 7.06896526e-04
 7.09114872e-04
 7.09114872e-04
 7.09114872e-04
 7.09114872e-04
 7.09114872e-04
 7.09114872e-04
 7.09114872e-04
 7.09114872e-04
 7.09114872e-04
 7.09114872e-04
 7.09114872e-04
 7.09114872e-04
 7.09114872e-04
 4.54692637e-04
 4.54692637e-04
 5.12157336e-04
 5.12157336e-04
 5.12157336e-04
 5.12157336e-04
 5.12157336e-04
 2.85813430e-04
 2.85813430e-04
 2.85813430e-04
 2.24522673e-04
 2.24522673e-04
 1.38788901e-04
 1.38788901e-04
 1.38788901e-04
 1.38788901e-04
 1.38788901e-04
 1.62382089e-04
 1.62382089e-04
)
)
1
(
101
(
 2.99040206e-12
 2.99040206e-12
 2.99040206e-12
 2.99040206e-12
 2.99040206e-12
 2.99040206e-12
 2.99040206e-12
 2.99040206e-12
 2.99040206e-12
 2.99040206e-12
 2.99040206e-12
 2.99040206e-12
 2.99040206e-12
 2.99040206e-12
 2.99040206e-12
 2.99040206e-12
 2.99040206e-12
 2.99040206e-12
 2.99040206e-12
 2.99040206e-12
 2.99040206e-12
 2.99040206e-12
 2.99040206e-12
 2.99040206e-12
 2.99040206e-12
 2.99040206e-12
 2.99040206e-12
 2.99040206e-12
 2.99040206e-12
 2.99040206e-12
 2.99040206e-12
 2.99040206e-12
 2.99040206e-12
 2.99040206e-12
 2.99040206e-12
 2.99040206e-12
 2.99040206e-12
 2.99040206e-12
 2.99040206e-12
 2.99040206e-12
 9.29744423e-04
 9.29744423e-04
 9.29744423e-04
 9.29744423e-04
 9.29744423e-04
 9.29744423e-04
 8.70972241e-04
 8.70972241e-04
 8.70972241e-04
 8.70972241e-04
 8.70972241e-04
 8.70972241e-04
 8.70972241e-04
 8.70972241e-04
 8.70972241e-04
 8.70972241e-04
 8.70972241e-04
 8.70972241e-04
 8.70972241e-04
 8.70972241e-04
 8.70972241e-04
 7.06896526e-04
 7.06896526e-04
 7.06896526e-04
 7.06896526e-04
 7.06896526e-04
 7.06896526e-04
 7.06896526e-04
 7.06896526e-04
 7.06896526e-04
 7.06896526e-04
 7.09114872e-04
 7.09114872e-04
 7.09114872e-04
 7.09114872e-04
 7.09114872e-04
 7.09114872e-04
 7.09114872e-04
 7.09114872e-04
 7.09114872e-04
 7.09114872e-04
 7.09114872e-04
 7.09114872e-04
 4.54692637e-04
 4.54692637e-04
 4.54692637e-04
 5.12157336e-04
 5.12157336e-04
 5.12157336e-04
 5.12157336e-04
 2.85813430e-04
 2.85813430e-04
 2.85813430e-04
 2.24522673e-04
 2.24522673e-04
 1.38788901e-04
 1.38788901e-04
 1.38788901e-04
 1.38788901e-04
 1.38788901e-04
 1.38788901e-04
)
)
1
(
101
(
 3.54136719e-12
 3.54136719e-12
 3.54136719e-12
 3.54136719e-12
 3.54136719e-12
 3.54136719e-12
 3.54136719e-12
 3.54136719e-12
 3.54136719e-12
 3.54136719e-12
 3.54136719e-12
 3.54136719e-12
 3.54136719e-12
 3.54136719e-12
 3.54136719e-12
 3.54136719e-12
 3.54136719e-12
 3.54136719e-12
 3.54136719e-12
 3.54136719e-12
 3.54136719e-12
 3.54136719e-12
 3.54136719e-12
 3.54136719e-12
 3.54136719e-12
 3.54136719e-12
 3.54136719e-12
 3.54136719e-12
 3.54136719e-12
 3.54136719e-12
 3.54136719e-12
 3.54136719e-12
 3.54136719e-12
 3.54136719e-12
 3.54136719e-12
 3.54136719e-12
 3.54136719e-12
 3.54136719e-12
 3.54136719e-12
 9.29744423e-04
 9.29744423e-04
 9.29744423e-04
 9.29744423e-04
 9.29744423e-04
 9.29744423e-04
 9.29744423e-04
 9.29744423e-04
 9.29744423e-04
 8.70972241e-04
 8.70972241e-04
 8.70972241e-04
 8.70972241e-04
 8.70972241e-04
 8.70972241e-04
 8.70972241e-04
 8.70972241e-04
 8.70972241e-04
 8.70972241e-04
 8.70972241e-04
 8.70972241e-04
 8.70972241e-04
 8.70972241e-04
 7.06896526e-04
 7.06896526e-04
 7.06896526e-04
 7.06896526e-04
 7.06896526e-04
 7.06896526e-04
 7.06896526e-04
 7.06896526e-04
 7.06896526e-04
 7.06896526e-04
 7.09114872e-04
 7.09114872e-04
 7.09114872e-04
 7.09114872e-04
 7.09114872e-04
 7.09114872e-04
 7.09114872e-04
 7.09114872e-04
 7.09114872e-04
 7.09114872e-04
 7.09114872e-04
 7.09114872e-04
 4.54692637e-04
 4.54692637e-04
 4.54692637e-04
 4.54692637e-04
 3.52998605e-04
 3.52998605e-04
 3.52998605e-04
 2.85813430e-04
 2.85813430e-04
 2.85813430e-04
 2.24522673e-04
 2.24522673e-04
 1.38788901e-04
 1.38788901e-04
 1.38788901e-04