/*--------------------------------*- C++ -*----------------------------------*\
| =========                 |                                                 |
| \\      /  F ield        | OpenFOAM: The Open Source CFD Toolbox           |
|  \\    /   O peration    | Version:  7                                     |
|   \\  /    A nd          | Web:      http://www.OpenFOAM.com               |
|    \\/     M anipulation |                                                 |
\*---------------------------------------------------------------------------*/

FoamFile
{
    version     2.0;
    format      ascii;
    class       dictionary;
    object      Y_C2H5_table;
}

Y_C2H5_table
2
(
101
(
1
(
101
(
 1.65024982e-21
 1.65024982e-21
 1.65024982e-21
 1.65024982e-21
 1.65024982e-21
 1.65024982e-21
 1.65024982e-21
 1.65024982e-21
 1.65024982e-21
 1.65024982e-21
 1.65024982e-21
 1.65024982e-21
 1.65024982e-21
 1.65024982e-21
 1.65024982e-21
 1.65024982e-21
 1.65024982e-21
 1.65024982e-21
 1.65024982e-21
 1.65024982e-21
 1.65024982e-21
 1.65024982e-21
 1.65024982e-21
 1.65024982e-21
 1.65024982e-21
 1.65024982e-21
 1.65024982e-21
 1.65024982e-21
 1.65024982e-21
 1.65024982e-21
 1.65024982e-21
 1.65024982e-21
 1.65024982e-21
 1.65024982e-21
 1.65024982e-21
 1.65024982e-21
 1.65024982e-21
 1.65024982e-21
 1.65024982e-21
 1.65024982e-21
 1.65024982e-21
 1.65024982e-21
 1.65024982e-21
 1.65024982e-21
 1.65024982e-21
 6.32573574e-08
 6.32573574e-08
 6.87844109e-08
 6.87844109e-08
 6.87844109e-08
 6.87844109e-08
 6.87844109e-08
 6.87844109e-08
 6.87844109e-08
 6.87844109e-08
 6.87844109e-08
 6.87844109e-08
 6.87844109e-08
 6.87844109e-08
 6.87844109e-08
 6.87844109e-08
 6.87844109e-08
 6.87844109e-08
 4.61505714e-08
 4.61505714e-08
 4.61505714e-08
 4.61505714e-08
 4.61505714e-08
 4.61505714e-08
 4.61505714e-08
 4.61505714e-08
 4.61505714e-08
 4.61505714e-08
 4.61505714e-08
 4.61505714e-08
 1.57762572e-08
 1.57762572e-08
 1.57762572e-08
 1.57762572e-08
 1.57762572e-08
 1.57762572e-08
 1.57762572e-08
 1.10884742e-08
 1.10884742e-08
 1.10884742e-08
 1.10884742e-08
 1.10884742e-08
 1.10884742e-08
 5.72727285e-09
 5.72727285e-09
 5.72727285e-09
 5.72727285e-09
 5.72727285e-09
 5.72727285e-09
 5.72727285e-09
 7.99517539e-10
 7.99517539e-10
 7.99517539e-10
 7.99517539e-10
 7.99517539e-10
 6.37636600e-12
)
)
1
(
101
(
 3.76333391e-19
 3.76333391e-19
 3.76333391e-19
 3.76333391e-19
 3.76333391e-19
 3.76333391e-19
 3.76333391e-19
 3.76333391e-19
 3.76333391e-19
 3.76333391e-19
 3.76333391e-19
 3.76333391e-19
 3.76333391e-19
 3.76333391e-19
 3.76333391e-19
 3.76333391e-19
 3.76333391e-19
 3.76333391e-19
 3.76333391e-19
 3.76333391e-19
 3.76333391e-19
 3.76333391e-19
 3.76333391e-19
 3.76333391e-19
 3.76333391e-19
 3.76333391e-19
 3.76333391e-19
 3.76333391e-19
 3.76333391e-19
 3.76333391e-19
 3.76333391e-19
 3.76333391e-19
 3.76333391e-19
 3.76333391e-19
 3.76333391e-19
 3.76333391e-19
 3.76333391e-19
 3.76333391e-19
 3.76333391e-19
 3.76333391e-19
 3.76333391e-19
 3.76333391e-19
 3.76333391e-19
 3.76333391e-19
 3.76333391e-19
 6.32573574e-08
 6.32573574e-08
 6.32573574e-08
 6.87844109e-08
 6.87844109e-08
 6.87844109e-08
 6.87844109e-08
 6.87844109e-08
 6.87844109e-08
 6.87844109e-08
 6.87844109e-08
 6.87844109e-08
 6.87844109e-08
 6.87844109e-08
 6.87844109e-08
 6.87844109e-08
 6.87844109e-08
 6.87844109e-08
 6.87844109e-08
 6.87844109e-08
 4.61505714e-08
 4.61505714e-08
 4.61505714e-08
 4.61505714e-08
 4.61505714e-08
 4.61505714e-08
 4.61505714e-08
 4.61505714e-08
 4.61505714e-08
 4.61505714e-08
 4.61505714e-08
 4.61505714e-08
 1.57762572e-08
 1.57762572e-08
 1.57762572e-08
 1.57762572e-08
 1.57762572e-08
 1.57762572e-08
 1.10884742e-08
 1.10884742e-08
 1.10884742e-08
 1.10884742e-08
 1.10884742e-08
 1.10884742e-08
 1.10884742e-08
 5.72727285e-09
 5.72727285e-09
 5.72727285e-09
 5.72727285e-09
 5.72727285e-09
 5.72727285e-09
 2.79481919e-09
 7.99517539e-10
 7.99517539e-10
 7.99517539e-10
 3.09748666e-10
)
)
1
(
101
(
 2.15544164e-18
 2.15544164e-18
 2.15544164e-18
 2.15544164e-18
 2.15544164e-18
 2.15544164e-18
 2.15544164e-18
 2.15544164e-18
 2.15544164e-18
 2.15544164e-18
 2.15544164e-18
 2.15544164e-18
 2.15544164e-18
 2.15544164e-18
 2.15544164e-18
 2.15544164e-18
 2.15544164e-18
 2.15544164e-18
 2.15544164e-18
 2.15544164e-18
 2.15544164e-18
 2.15544164e-18
 2.15544164e-18
 2.15544164e-18
 2.15544164e-18
 2.15544164e-18
 2.15544164e-18
 2.15544164e-18
 2.15544164e-18
 2.15544164e-18
 2.15544164e-18
 2.15544164e-18
 2.15544164e-18
 2.15544164e-18
 2.15544164e-18
 2.15544164e-18
 2.15544164e-18
 2.15544164e-18
 2.15544164e-18
 2.15544164e-18
 2.15544164e-18
 2.15544164e-18
 2.15544164e-18
 2.15544164e-18
 6.32573574e-08
 6.32573574e-08
 6.32573574e-08
 6.32573574e-08
 6.32573574e-08
 6.32573574e-08
 6.87844109e-08
 6.87844109e-08
 6.87844109e-08
 6.87844109e-08
 6.87844109e-08
 6.87844109e-08
 6.87844109e-08
 6.87844109e-08
 6.87844109e-08
 6.87844109e-08
 6.87844109e-08
 6.87844109e-08
 6.87844109e-08
 6.87844109e-08
 6.87844109e-08
 6.87844109e-08
 4.61505714e-08
 4.61505714e-08
 4.61505714e-08
 4.61505714e-08
 4.61505714e-08
 4.61505714e-08
 4.61505714e-08
 4.61505714e-08
 4.61505714e-08
 4.61505714e-08
 4.61505714e-08
 4.61505714e-08
 1.57762572e-08
 1.57762572e-08
 1.57762572e-08
 1.57762572e-08
 1.57762572e-08
 1.57762572e-08
 1.57762572e-08
 1.10884742e-08
 1.10884742e-08
 1.10884742e-08
 1.10884742e-08
 1.10884742e-08
 1.10884742e-08
 5.72727285e-09
 5.72727285e-09
 5.72727285e-09
 5.72727285e-09
 5.72727285e-09
 5.72727285e-09
 2.79481919e-09
 2.79481919e-09
 1.29164845e-09
 1.29164845e-09
)
)
1
(
101
(
 4.34310271e-18
 4.34310271e-18
 4.34310271e-18
 4.34310271e-18
 4.34310271e-18
 4.34310271e-18
 4.34310271e-18
 4.34310271e-18
 4.34310271e-18
 4.34310271e-18
 4.34310271e-18
 4.34310271e-18
 4.34310271e-18
 4.34310271e-18
 4.34310271e-18
 4.34310271e-18
 4.34310271e-18
 4.34310271e-18
 4.34310271e-18
 4.34310271e-18
 4.34310271e-18
 4.34310271e-18
 4.34310271e-18
 4.34310271e-18
 4.34310271e-18
 4.34310271e-18
 4.34310271e-18
 4.34310271e-18
 4.34310271e-18
 4.34310271e-18
 4.34310271e-18
 4.34310271e-18
 4.34310271e-18
 4.34310271e-18
 4.34310271e-18
 4.34310271e-18
 4.34310271e-18
 4.34310271e-18
 4.34310271e-18
 4.34310271e-18
 4.34310271e-18
 4.34310271e-18
 4.34310271e-18
 4.34310271e-18
 7.89602043e-08
 6.32573574e-08
 6.32573574e-08
 6.32573574e-08
 6.32573574e-08
 6.32573574e-08
 6.32573574e-08
 6.87844109e-08
 6.87844109e-08
 6.87844109e-08
 6.87844109e-08
 6.87844109e-08
 6.87844109e-08
 6.87844109e-08
 6.87844109e-08
 6.87844109e-08
 6.87844109e-08
 6.87844109e-08
 6.87844109e-08
 6.87844109e-08
 6.87844109e-08
 6.87844109e-08
 6.87844109e-08
 4.61505714e-08
 4.61505714e-08
 4.61505714e-08
 4.61505714e-08
 4.61505714e-08
 4.61505714e-08
 4.61505714e-08
 4.61505714e-08
 4.61505714e-08
 4.61505714e-08
 4.61505714e-08
 4.61505714e-08
 2.22059296e-08
 1.57762572e-08
 1.57762572e-08
 1.57762572e-08
 1.57762572e-08
 1.57762572e-08
 1.57762572e-08
 1.10884742e-08
 1.10884742e-08
 1.10884742e-08
 1.10884742e-08
 1.10884742e-08
 1.10884742e-08
 1.10884742e-08
 5.72727285e-09
 5.72727285e-09
 5.72727285e-09
 5.72727285e-09
 5.72727285e-09
 2.79481919e-09
 1.06644268e-09
 1.06644268e-09
)
)
1
(
101
(
 1.05772855e-17
 1.05772855e-17
 1.05772855e-17
 1.05772855e-17
 1.05772855e-17
 1.05772855e-17
 1.05772855e-17
 1.05772855e-17
 1.05772855e-17
 1.05772855e-17
 1.05772855e-17
 1.05772855e-17
 1.05772855e-17
 1.05772855e-17
 1.05772855e-17
 1.05772855e-17
 1.05772855e-17
 1.05772855e-17
 1.05772855e-17
 1.05772855e-17
 1.05772855e-17
 1.05772855e-17
 1.05772855e-17
 1.05772855e-17
 1.05772855e-17
 1.05772855e-17
 1.05772855e-17
 1.05772855e-17
 1.05772855e-17
 1.05772855e-17
 1.05772855e-17
 1.05772855e-17
 1.05772855e-17
 1.05772855e-17
 1.05772855e-17
 1.05772855e-17
 1.05772855e-17
 1.05772855e-17
 1.05772855e-17
 1.05772855e-17
 1.05772855e-17
 1.05772855e-17
 1.05772855e-17
 1.05772855e-17
 7.89602043e-08
 7.89602043e-08
 7.89602043e-08
 6.32573574e-08
 6.32573574e-08
 6.32573574e-08
 6.32573574e-08
 6.32573574e-08
 6.32573574e-08
 6.87844109e-08
 6.87844109e-08
 6.87844109e-08
 6.87844109e-08
 6.87844109e-08
 6.87844109e-08
 6.87844109e-08
 6.87844109e-08
 6.87844109e-08
 6.87844109e-08
 6.87844109e-08
 6.87844109e-08
 6.87844109e-08
 6.87844109e-08
 6.87844109e-08
 4.61505714e-08
 4.61505714e-08
 4.61505714e-08
 4.61505714e-08
 4.61505714e-08
 4.61505714e-08
 4.61505714e-08
 4.61505714e-08
 4.61505714e-08
 4.61505714e-08
 4.61505714e-08
 4.61505714e-08
 2.22059296e-08
 1.57762572e-08
 1.57762572e-08
 1.57762572e-08
 1.57762572e-08
 1.57762572e-08
 1.57762572e-08
 1.57762572e-08
 1.10884742e-08
 1.10884742e-08
 1.10884742e-08
 1.10884742e-08
 1.10884742e-08
 1.10884742e-08
 5.95861674e-09
 5.72727285e-09
 5.72727285e-09
 5.72727285e-09
 2.77218287e-09
 2.77218287e-09
 1.06644268e-09
)
)
1
(
101
(
 1.43192218e-17
 1.43192218e-17
 1.43192218e-17
 1.43192218e-17
 1.43192218e-17
 1.43192218e-17
 1.43192218e-17
 1.43192218e-17
 1.43192218e-17
 1.43192218e-17
 1.43192218e-17
 1.43192218e-17
 1.43192218e-17
 1.43192218e-17
 1.43192218e-17
 1.43192218e-17
 1.43192218e-17
 1.43192218e-17
 1.43192218e-17
 1.43192218e-17
 1.43192218e-17
 1.43192218e-17
 1.43192218e-17
 1.43192218e-17
 1.43192218e-17
 1.43192218e-17
 1.43192218e-17
 1.43192218e-17
 1.43192218e-17
 1.43192218e-17
 1.43192218e-17
 1.43192218e-17
 1.43192218e-17
 1.43192218e-17
 1.43192218e-17
 1.43192218e-17
 1.43192218e-17
 1.43192218e-17
 1.43192218e-17
 1.43192218e-17
 1.43192218e-17
 1.43192218e-17
 7.81035619e-16
 7.89602043e-08
 7.89602043e-08
 7.89602043e-08
 7.89602043e-08
 7.89602043e-08
 6.32573574e-08
 6.32573574e-08
 6.32573574e-08
 6.32573574e-08
 6.32573574e-08
 6.32573574e-08
 6.87844109e-08
 6.87844109e-08
 6.87844109e-08
 6.87844109e-08
 6.87844109e-08
 6.87844109e-08
 6.87844109e-08
 6.87844109e-08
 6.87844109e-08
 6.87844109e-08
 6.87844109e-08
 6.87844109e-08
 6.87844109e-08
 6.87844109e-08
 6.87844109e-08
 6.87844109e-08
 4.61505714e-08
 4.61505714e-08
 4.61505714e-08
 4.61505714e-08
 4.61505714e-08
 4.61505714e-08
 4.61505714e-08
 4.61505714e-08
 4.61505714e-08
 4.61505714e-08
 4.61505714e-08
 2.22059296e-08
 2.22059296e-08
 1.57762572e-08
 1.57762572e-08
 1.57762572e-08
 1.57762572e-08
 1.57762572e-08
 1.57762572e-08
 1.10884742e-08
 1.10884742e-08
 1.10884742e-08
 1.10884742e-08
 1.10884742e-08
 1.10884742e-08
 5.95861674e-09
 5.95861674e-09
 4.48840337e-09
 4.48840337e-09
 2.77218287e-09
 2.77218287e-09
)
)
1
(
101
(
 4.50989282e-17
 4.50989282e-17
 4.50989282e-17
 4.50989282e-17
 4.50989282e-17
 4.50989282e-17
 4.50989282e-17
 4.50989282e-17
 4.50989282e-17
 4.50989282e-17
 4.50989282e-17
 4.50989282e-17
 4.50989282e-17
 4.50989282e-17
 4.50989282e-17
 4.50989282e-17
 4.50989282e-17
 4.50989282e-17
 4.50989282e-17
 4.50989282e-17
 4.50989282e-17
 4.50989282e-17
 4.50989282e-17
 4.50989282e-17
 4.50989282e-17
 4.50989282e-17
 4.50989282e-17
 4.50989282e-17
 4.50989282e-17
 4.50989282e-17
 4.50989282e-17
 4.50989282e-17
 4.50989282e-17
 7.81035619e-16
 7.81035619e-16
 7.81035619e-16
 7.81035619e-16
 7.81035619e-16
 7.81035619e-16
 7.81035619e-16
 7.81035619e-16
 7.81035619e-16
 7.81035619e-16
 7.89602043e-08
 7.89602043e-08
 7.89602043e-08
 7.89602043e-08
 7.89602043e-08
 7.89602043e-08
 6.32573574e-08
 6.32573574e-08
 6.32573574e-08
 6.32573574e-08
 6.32573574e-08
 6.32573574e-08
 6.32573574e-08
 6.87844109e-08
 6.87844109e-08
 6.87844109e-08
 6.87844109e-08
 6.87844109e-08
 6.87844109e-08
 6.87844109e-08
 6.87844109e-08
 6.87844109e-08
 6.87844109e-08
 6.87844109e-08
 6.87844109e-08
 6.87844109e-08
 6.87844109e-08
 6.87844109e-08
 4.61505714e-08
 4.61505714e-08
 4.61505714e-08
 4.61505714e-08
 4.61505714e-08
 4.61505714e-08
 4.61505714e-08
 4.61505714e-08
 4.61505714e-08
 4.61505714e-08
 4.61505714e-08
 2.22059296e-08
 2.22059296e-08
 1.57762572e-08
 1.57762572e-08
 1.57762572e-08
 1.57762572e-08
 1.57762572e-08
 1.57762572e-08
 1.57762572e-08
 1.10884742e-08
 1.10884742e-08
 1.10884742e-08
 1.10884742e-08
 1.10884742e-08
 5.95861674e-09
 5.95861674e-09
 4.48840337e-09
 4.48840337e-09
 2.77218287e-09
)
)
1
(
101
(
 5.76442706e-17
 5.76442706e-17
 5.76442706e-17
 5.76442706e-17
 5.76442706e-17
 5.76442706e-17
 5.76442706e-17
 5.76442706e-17
 5.76442706e-17
 5.76442706e-17
 5.76442706e-17
 5.76442706e-17
 5.76442706e-17
 5.76442706e-17
 5.76442706e-17
 5.76442706e-17
 5.76442706e-17
 5.76442706e-17
 5.76442706e-17
 5.76442706e-17
 5.76442706e-17
 5.76442706e-17
 5.76442706e-17
 5.76442706e-17
 5.76442706e-17
 5.76442706e-17
 7.81035619e-16
 7.81035619e-16
 7.81035619e-16
 7.81035619e-16
 7.81035619e-16
 7.81035619e-16
 7.81035619e-16
 7.81035619e-16
 7.81035619e-16
 7.81035619e-16
 7.81035619e-16
 7.81035619e-16
 7.81035619e-16
 7.81035619e-16
 7.81035619e-16
 7.81035619e-16
 7.81035619e-16
 7.89602043e-08
 7.89602043e-08
 7.89602043e-08
 7.89602043e-08
 7.89602043e-08
 7.89602043e-08
 7.89602043e-08
 6.32573574e-08
 6.32573574e-08
 6.32573574e-08
 6.32573574e-08
 6.32573574e-08
 6.32573574e-08
 6.32573574e-08
 6.87844109e-08
 6.87844109e-08
 6.87844109e-08
 6.87844109e-08
 6.87844109e-08
 6.87844109e-08
 6.87844109e-08
 6.87844109e-08
 6.87844109e-08
 6.87844109e-08
 6.87844109e-08
 6.87844109e-08
 6.87844109e-08
 6.87844109e-08
 6.87844109e-08
 4.61505714e-08
 4.61505714e-08
 4.61505714e-08
 4.61505714e-08
 4.61505714e-08
 4.61505714e-08
 4.61505714e-08
 4.61505714e-08
 4.61505714e-08
 4.61505714e-08
 4.61505714e-08
 2.22059296e-08
 2.22059296e-08
 2.22059296e-08
 1.57762572e-08
 1.57762572e-08
 1.57762572e-08
 1.57762572e-08
 1.57762572e-08
 1.57762572e-08
 1.24252226e-08
 1.10884742e-08
 1.10884742e-08
 1.10884742e-08
 6.30626439e-09
 6.30626439e-09
 6.30626439e-09
 4.48840337e-09
 4.48840337e-09
)
)
1
(
101
(
 9.16882491e-17
 9.16882491e-17
 9.16882491e-17
 9.16882491e-17
 9.16882491e-17
 9.16882491e-17
 9.16882491e-17
 9.16882491e-17
 9.16882491e-17
 9.16882491e-17
 9.16882491e-17
 9.16882491e-17
 9.16882491e-17
 9.16882491e-17
 9.16882491e-17
 9.16882491e-17
 9.16882491e-17
 9.16882491e-17
 9.16882491e-17
 7.81035619e-16
 7.81035619e-16
 7.81035619e-16
 7.81035619e-16
 7.81035619e-16
 7.81035619e-16
 7.81035619e-16
 7.81035619e-16
 7.81035619e-16
 7.81035619e-16
 7.81035619e-16
 7.81035619e-16
 7.81035619e-16
 7.81035619e-16
 7.81035619e-16
 7.81035619e-16
 7.81035619e-16
 7.81035619e-16
 7.81035619e-16
 7.81035619e-16
 7.81035619e-16
 7.81035619e-16
 7.81035619e-16
 7.89602043e-08
 7.89602043e-08
 7.89602043e-08
 7.89602043e-08
 7.89602043e-08
 7.89602043e-08
 7.89602043e-08
 7.89602043e-08
 7.89602043e-08
 6.32573574e-08
 6.32573574e-08
 6.32573574e-08
 6.32573574e-08
 6.32573574e-08
 6.32573574e-08
 6.32573574e-08
 6.32573574e-08
 6.87844109e-08
 6.87844109e-08
 6.87844109e-08
 6.87844109e-08
 6.87844109e-08
 6.87844109e-08
 6.87844109e-08
 6.87844109e-08
 6.87844109e-08
 6.87844109e-08
 6.87844109e-08
 6.87844109e-08
 6.87844109e-08
 6.87844109e-08
 4.61505714e-08
 4.61505714e-08
 4.61505714e-08
 4.61505714e-08
 4.61505714e-08
 4.61505714e-08
 4.61505714e-08
 4.61505714e-08
 4.61505714e-08
 4.61505714e-08
 4.61505714e-08
 2.22059296e-08
 2.22059296e-08
 2.22059296e-08
 1.57762572e-08
 1.57762572e-08
 1.57762572e-08
 1.57762572e-08
 1.57762572e-08
 1.57762572e-08
 1.24252226e-08
 1.24252226e-08
 7.36183877e-09
 7.36183877e-09
 6.30626439e-09
 6.30626439e-09
 6.30626439e-09
 6.30626439e-09
)
)
1
(
101
(
 3.25048696e-16
 3.25048696e-16
 3.25048696e-16
 3.25048696e-16
 3.25048696e-16
 3.25048696e-16
 3.25048696e-16
 3.25048696e-16
 3.25048696e-16
 3.25048696e-16
 3.25048696e-16
 3.25048696e-16
 3.25048696e-16
 3.25048696e-16
 7.81035619e-16
 7.81035619e-16
 7.81035619e-16
 7.81035619e-16
 7.81035619e-16
 7.81035619e-16
 7.81035619e-16
 7.81035619e-16
 7.81035619e-16
 7.81035619e-16
 7.81035619e-16
 7.81035619e-16
 7.81035619e-16
 7.81035619e-16
 7.81035619e-16
 7.81035619e-16
 7.81035619e-16
 7.81035619e-16
 7.81035619e-16
 7.81035619e-16
 7.81035619e-16
 7.81035619e-16
 7.81035619e-16
 7.81035619e-16
 7.81035619e-16
 7.81035619e-16
 7.81035619e-16
 7.81035619e-16
 7.89602043e-08
 7.89602043e-08
 7.89602043e-08
 7.89602043e-08
 7.89602043e-08
 7.89602043e-08
 7.89602043e-08
 7.89602043e-08
 7.89602043e-08
 7.89602043e-08
 6.32573574e-08
 6.32573574e-08
 6.32573574e-08
 6.32573574e-08
 6.32573574e-08
 6.32573574e-08
 6.32573574e-08
 6.32573574e-08
 6.87844109e-08
 6.87844109e-08
 6.87844109e-08
 6.87844109e-08
 6.87844109e-08
 6.87844109e-08
 6.87844109e-08
 6.87844109e-08
 6.87844109e-08
 6.87844109e-08
 6.87844109e-08
 6.87844109e-08
 6.87844109e-08
 6.87844109e-08
 6.87844109e-08
 4.61505714e-08
 4.61505714e-08
 4.61505714e-08
 4.61505714e-08
 4.61505714e-08
 4.61505714e-08
 4.61505714e-08
 4.61505714e-08
 4.61505714e-08
 4.61505714e-08
 2.22059296e-08
 2.22059296e-08
 2.22059296e-08
 2.22059296e-08
 1.57762572e-08
 1.57762572e-08
 1.57762572e-08
 1.57762572e-08
 1.57762572e-08
 1.24252226e-08
 1.24252226e-08
 7.36183877e-09
 7.36183877e-09
 6.30626439e-09
 6.30626439e-09
 6.30626439e-09
)
)
1
(
101
(
 3.61918549e-16
 3.61918549e-16
 3.61918549e-16
 3.61918549e-16
 3.61918549e-16
 3.61918549e-16
 3.61918549e-16
 3.61918549e-16
 3.61918549e-16
 7.81035619e-16
 7.81035619e-16
 7.81035619e-16
 7.81035619e-16
 7.81035619e-16
 7.81035619e-16
 7.81035619e-16
 7.81035619e-16
 7.81035619e-16
 7.81035619e-16
 7.81035619e-16
 7.81035619e-16
 7.81035619e-16
 7.81035619e-16
 7.81035619e-16
 7.81035619e-16
 7.81035619e-16
 7.81035619e-16
 7.81035619e-16
 7.81035619e-16
 7.81035619e-16
 7.81035619e-16
 7.81035619e-16
 7.81035619e-16
 7.81035619e-16
 7.81035619e-16
 7.81035619e-16
 7.81035619e-16
 7.81035619e-16
 7.81035619e-16
 7.81035619e-16
 7.81035619e-16
 7.81035619e-16
 7.89602043e-08
 7.89602043e-08
 7.89602043e-08
 7.89602043e-08
 7.89602043e-08
 7.89602043e-08
 7.89602043e-08
 7.89602043e-08
 7.89602043e-08
 7.89602043e-08
 7.89602043e-08
 7.89602043e-08
 6.32573574e-08
 6.32573574e-08
 6.32573574e-08
 6.32573574e-08
 6.32573574e-08
 6.32573574e-08
 6.32573574e-08
 6.32573574e-08
 6.87844109e-08
 6.87844109e-08
 6.87844109e-08
 6.87844109e-08
 6.87844109e-08
 6.87844109e-08
 6.87844109e-08
 6.87844109e-08
 6.87844109e-08
 6.87844109e-08
 6.87844109e-08
 6.87844109e-08
 6.87844109e-08
 6.87844109e-08
 4.61505714e-08
 4.61505714e-08
 4.61505714e-08
 4.61505714e-08
 4.61505714e-08
 4.61505714e-08
 4.61505714e-08
 4.61505714e-08
 4.61505714e-08
 4.61505714e-08
 2.22059296e-08
 2.22059296e-08
 2.22059296e-08
 2.22059296e-08
 1.70111397e-08
 1.57762572e-08
 1.57762572e-08
 1.57762572e-08
 1.57762572e-08
 1.24252226e-08
 1.24252226e-08
 7.36183877e-09
 7.36183877e-09
 6.30626439e-09
 6.30626439e-09
)
)
1
(
101
(
 5.81443370e-16
 5.81443370e-16
 5.81443370e-16
 5.81443370e-16
 5.81443370e-16
 5.81443370e-16
 7.81035619e-16
 7.81035619e-16
 7.81035619e-16
 7.81035619e-16
 7.81035619e-16
 7.81035619e-16
 7.81035619e-16
 7.81035619e-16
 7.81035619e-16
 7.81035619e-16
 7.81035619e-16
 7.81035619e-16
 7.81035619e-16
 7.81035619e-16
 7.81035619e-16
 7.81035619e-16
 7.81035619e-16
 7.81035619e-16
 7.81035619e-16
 7.81035619e-16
 7.81035619e-16
 7.81035619e-16
 7.81035619e-16
 7.81035619e-16
 7.81035619e-16
 7.81035619e-16
 7.81035619e-16
 7.81035619e-16
 7.81035619e-16
 7.81035619e-16
 7.81035619e-16
 7.81035619e-16
 7.81035619e-16
 7.81035619e-16
 7.81035619e-16
 7.81035619e-16
 7.89602043e-08
 7.89602043e-08
 7.89602043e-08
 7.89602043e-08
 7.89602043e-08
 7.89602043e-08
 7.89602043e-08
 7.89602043e-08
 7.89602043e-08
 7.89602043e-08
 7.89602043e-08
 7.89602043e-08
 7.89602043e-08
 6.32573574e-08
 6.32573574e-08
 6.32573574e-08
 6.32573574e-08
 6.32573574e-08
 6.32573574e-08
 6.32573574e-08
 6.32573574e-08
 6.87844109e-08
 6.87844109e-08
 6.87844109e-08
 6.87844109e-08
 6.87844109e-08
 6.87844109e-08
 6.87844109e-08
 6.87844109e-08
 6.87844109e-08
 6.87844109e-08
 6.87844109e-08
 6.87844109e-08
 6.87844109e-08
 6.87844109e-08
 4.61505714e-08
 4.61505714e-08
 4.61505714e-08
 4.61505714e-08
 4.61505714e-08
 4.61505714e-08
 4.61505714e-08
 4.61505714e-08
 4.61505714e-08
 4.61505714e-08
 2.22059296e-08
 2.22059296e-08
 2.22059296e-08
 2.22059296e-08
 1.70111397e-08
 1.70111397e-08
 1.10953109e-08
 1.10953109e-08
 1.10953109e-08
 1.24252226e-08
 1.24252226e-08
 7.36183877e-09
 7.36183877e-09
 6.30626439e-09
)
)
1
(
101
(
 9.78243343e-16
 9.78243343e-16
 9.78243343e-16
 7.81035619e-16
 7.81035619e-16
 7.81035619e-16
 7.81035619e-16
 7.81035619e-16
 7.81035619e-16
 7.81035619e-16
 7.81035619e-16
 7.81035619e-16
 7.81035619e-16
 7.81035619e-16
 7.81035619e-16
 7.81035619e-16
 7.81035619e-16
 7.81035619e-16
 7.81035619e-16
 7.81035619e-16
 7.81035619e-16
 7.81035619e-16
 7.81035619e-16
 7.81035619e-16
 7.81035619e-16
 7.81035619e-16
 7.81035619e-16
 7.81035619e-16
 7.81035619e-16
 7.81035619e-16
 7.81035619e-16
 7.81035619e-16
 7.81035619e-16
 7.81035619e-16
 7.81035619e-16
 7.81035619e-16
 7.81035619e-16
 7.81035619e-16
 7.81035619e-16
 7.81035619e-16
 7.81035619e-16
 7.87816369e-08
 7.89602043e-08
 7.89602043e-08
 7.89602043e-08
 7.89602043e-08
 7.89602043e-08
 7.89602043e-08
 7.89602043e-08
 7.89602043e-08
 7.89602043e-08
 7.89602043e-08
 7.89602043e-08
 7.89602043e-08
 7.89602043e-08
 7.89602043e-08
 6.32573574e-08
 6.32573574e-08
 6.32573574e-08
 6.32573574e-08
 6.32573574e-08
 6.32573574e-08
 6.32573574e-08
 6.32573574e-08
 6.32573574e-08
 6.87844109e-08
 6.87844109e-08
 6.87844109e-08
 6.87844109e-08
 6.87844109e-08
 6.87844109e-08
 6.87844109e-08
 6.87844109e-08
 6.87844109e-08
 6.87844109e-08
 6.87844109e-08
 6.87844109e-08
 6.87844109e-08
 4.61505714e-08
 4.61505714e-08
 4.61505714e-08
 4.61505714e-08
 4.61505714e-08
 4.61505714e-08
 4.61505714e-08
 4.61505714e-08
 4.61505714e-08
 4.61505714e-08
 2.22059296e-08
 2.22059296e-08
 2.22059296e-08
 2.22059296e-08
 1.70111397e-08
 1.70111397e-08
 1.10953109e-08
 1.10953109e-08
 1.10953109e-08
 1.10953109e-08
 1.24252226e-08
 7.36183877e-09
 7.36183877e-09
)
)
1
(
101
(
 1.92584441e-16
 1.92584441e-16
 7.81035619e-16
 7.81035619e-16
 7.81035619e-16
 7.81035619e-16
 7.81035619e-16
 7.81035619e-16
 7.81035619e-16
 7.81035619e-16
 7.81035619e-16
 7.81035619e-16
 7.81035619e-16
 7.81035619e-16
 7.81035619e-16
 7.81035619e-16
 7.81035619e-16
 7.81035619e-16
 7.81035619e-16
 7.81035619e-16
 7.81035619e-16
 7.81035619e-16
 7.81035619e-16
 7.81035619e-16
 7.81035619e-16
 7.81035619e-16
 7.81035619e-16
 7.81035619e-16
 7.81035619e-16
 7.81035619e-16
 7.81035619e-16
 7.81035619e-16
 7.81035619e-16
 7.81035619e-16
 7.81035619e-16
 7.81035619e-16
 7.81035619e-16
 7.81035619e-16
 7.81035619e-16
 7.81035619e-16
 7.81035619e-16
 7.87816369e-08
 7.87816369e-08
 7.89602043e-08
 7.89602043e-08
 7.89602043e-08
 7.89602043e-08
 7.89602043e-08
 7.89602043e-08
 7.89602043e-08
 7.89602043e-08
 7.89602043e-08
 7.89602043e-08
 7.89602043e-08
 7.89602043e-08
 7.89602043e-08
 7.89602043e-08
 6.32573574e-08
 6.32573574e-08
 6.32573574e-08
 6.32573574e-08
 6.32573574e-08
 6.32573574e-08
 6.32573574e-08
 6.32573574e-08
 6.32573574e-08
 6.87844109e-08
 6.87844109e-08
 6.87844109e-08
 6.87844109e-08
 6.87844109e-08
 6.87844109e-08
 6.87844109e-08
 6.87844109e-08
 6.87844109e-08
 6.87844109e-08
 6.87844109e-08
 6.87844109e-08
 6.87844109e-08
 6.87844109e-08
 4.61505714e-08
 4.61505714e-08
 4.61505714e-08
 4.61505714e-08
 4.61505714e-08
 4.61505714e-08
 4.61505714e-08
 4.61505714e-08
 2.18101443e-08
 2.22059296e-08
 2.22059296e-08
 2.22059296e-08
 6.79671444e-09
 6.79671444e-09
 6.79671444e-09
 1.10953109e-08
 1.10953109e-08
 1.10953109e-08
 1.10953109e-08
 1.10953109e-08
 7.36183877e-09
)
)
1
(
101
(
 1.01941658e-26
 7.81035619e-16
 7.81035619e-16
 7.81035619e-16
 7.81035619e-16
 7.81035619e-16
 7.81035619e-16
 7.81035619e-16
 7.81035619e-16
 7.81035619e-16
 7.81035619e-16
 7.81035619e-16
 7.81035619e-16
 7.81035619e-16
 7.81035619e-16
 7.81035619e-16
 7.81035619e-16
 7.81035619e-16
 7.81035619e-16
 7.81035619e-16
 7.81035619e-16
 7.81035619e-16
 7.81035619e-16
 7.81035619e-16
 7.81035619e-16
 7.81035619e-16
 7.81035619e-16
 7.81035619e-16
 7.81035619e-16
 7.81035619e-16
 7.81035619e-16
 7.81035619e-16
 7.81035619e-16
 7.81035619e-16
 7.81035619e-16
 7.81035619e-16
 7.81035619e-16
 7.81035619e-16
 7.81035619e-16
 7.81035619e-16
 7.87816369e-08
 7.87816369e-08
 7.87816369e-08
 7.87816369e-08
 7.89602043e-08
 7.89602043e-08
 7.89602043e-08
 7.89602043e-08
 7.89602043e-08
 7.89602043e-08
 7.89602043e-08
 7.89602043e-08
 7.89602043e-08
 7.89602043e-08
 7.89602043e-08
 7.89602043e-08
 7.89602043e-08
 7.89602043e-08
 6.32573574e-08
 6.32573574e-08
 6.32573574e-08
 6.32573574e-08
 6.32573574e-08
 6.32573574e-08
 6.32573574e-08
 6.32573574e-08
 6.32573574e-08
 6.32573574e-08
 6.87844109e-08
 6.87844109e-08
 6.87844109e-08
 6.87844109e-08
 6.87844109e-08
 6.87844109e-08
 6.87844109e-08
 6.87844109e-08
 6.87844109e-08
 6.87844109e-08
 6.87844109e-08
 6.87844109e-08
 6.87844109e-08
 3.93540716e-08
 4.61505714e-08
 4.61505714e-08
 4.61505714e-08
 4.61505714e-08
 4.61505714e-08
 4.61505714e-08
 4.61505714e-08
 2.18101443e-08
 2.18101443e-08
 1.54558063e-08
 1.54558063e-08
 6.79671444e-09
 6.79671444e-09
 6.79671444e-09
 6.79671444e-09
 1.10953109e-08
 1.10953109e-08
 1.10953109e-08
 1.10953109e-08
)
)
1
(
101
(
 1.01941658e-26
 2.01197447e-15
 2.01197447e-15
 2.01197447e-15
 2.01197447e-15
 2.01197447e-15
 2.01197447e-15
 2.01197447e-15
 2.01197447e-15
 2.01197447e-15
 2.01197447e-15
 2.01197447e-15
 2.01197447e-15
 2.01197447e-15
 2.01197447e-15
 2.01197447e-15
 2.01197447e-15
 2.01197447e-15
 2.01197447e-15
 2.01197447e-15
 2.01197447e-15
 2.01197447e-15
 2.01197447e-15
 2.01197447e-15
 2.01197447e-15
 2.01197447e-15
 2.01197447e-15
 2.01197447e-15
 2.01197447e-15
 2.01197447e-15
 2.01197447e-15
 2.01197447e-15
 2.01197447e-15
 2.01197447e-15
 2.01197447e-15
 2.01197447e-15
 2.01197447e-15
 2.01197447e-15
 2.01197447e-15
 2.01197447e-15
 7.87816369e-08
 7.87816369e-08
 7.87816369e-08
 7.87816369e-08
 7.87816369e-08
 7.89602043e-08
 7.89602043e-08
 7.89602043e-08
 7.89602043e-08
 7.89602043e-08
 7.89602043e-08
 7.89602043e-08
 7.89602043e-08
 7.89602043e-08
 7.89602043e-08
 7.89602043e-08
 7.89602043e-08
 7.89602043e-08
 7.89602043e-08
 6.32573574e-08
 6.32573574e-08
 6.32573574e-08
 6.32573574e-08
 6.32573574e-08
 6.32573574e-08
 6.32573574e-08
 6.32573574e-08
 6.32573574e-08
 6.32573574e-08
 6.87844109e-08
 6.87844109e-08
 6.87844109e-08
 6.87844109e-08
 6.87844109e-08
 6.87844109e-08
 6.87844109e-08
 6.87844109e-08
 6.87844109e-08
 6.87844109e-08
 6.87844109e-08
 6.87844109e-08
 6.87844109e-08
 3.93540716e-08
 3.93540716e-08
 4.61505714e-08
 4.61505714e-08
 4.61505714e-08
 4.61505714e-08
 4.61505714e-08
 2.18101443e-08
 2.18101443e-08
 2.18101443e-08
 1.54558063e-08
 1.54558063e-08
 6.79671444e-09
 6.79671444e-09
 6.79671444e-09
 6.79671444e-09
 6.79671444e-09
 1.10953109e-08
 1.10953109e-08
)
)
1
(
101
(
 3.16646687e-15
 3.16646687e-15
 3.16646687e-15
 3.16646687e-15
 3.16646687e-15
 3.16646687e-15
 3.16646687e-15
 3.16646687e-15
 3.16646687e-15
 3.16646687e-15
 3.16646687e-15
 3.16646687e-15
 3.16646687e-15
 3.16646687e-15
 3.16646687e-15
 3.16646687e-15
 3.16646687e-15
 3.16646687e-15
 3.16646687e-15
 3.16646687e-15
 3.16646687e-15
 3.16646687e-15
 3.16646687e-15
 3.16646687e-15
 3.16646687e-15
 3.16646687e-15
 3.16646687e-15
 3.16646687e-15
 3.16646687e-15
 3.16646687e-15
 3.16646687e-15
 3.16646687e-15
 3.16646687e-15
 3.16646687e-15
 3.16646687e-15
 3.16646687e-15
 3.16646687e-15
 3.16646687e-15
 3.16646687e-15
 3.16646687e-15
 7.87816369e-08
 7.87816369e-08
 7.87816369e-08
 7.87816369e-08
 7.87816369e-08
 7.87816369e-08
 7.89602043e-08
 7.89602043e-08
 7.89602043e-08
 7.89602043e-08
 7.89602043e-08
 7.89602043e-08
 7.89602043e-08
 7.89602043e-08
 7.89602043e-08
 7.89602043e-08
 7.89602043e-08
 7.89602043e-08
 7.89602043e-08
 7.89602043e-08
 7.89602043e-08
 6.32573574e-08
 6.32573574e-08
 6.32573574e-08
 6.32573574e-08
 6.32573574e-08
 6.32573574e-08
 6.32573574e-08
 6.32573574e-08
 6.32573574e-08
 6.32573574e-08
 6.87844109e-08
 6.87844109e-08
 6.87844109e-08
 6.87844109e-08
 6.87844109e-08
 6.87844109e-08
 6.87844109e-08
 6.87844109e-08
 6.87844109e-08
 6.87844109e-08
 6.87844109e-08
 6.87844109e-08
 3.93540716e-08
 3.93540716e-08
 3.93540716e-08
 4.61505714e-08
 4.61505714e-08
 4.61505714e-08
 4.61505714e-08
 2.18101443e-08
 2.18101443e-08
 2.18101443e-08
 1.54558063e-08
 1.54558063e-08
 6.79671444e-09
 6.79671444e-09
 6.79671444e-09
 6.79671444e-09
 6.79671444e-09
 6.79671444e-09
)
)
1
(
101
(
 4.46630403e-15
 4.46630403e-15
 4.46630403e-15
 4.46630403e-15
 4.46630403e-15
 4.46630403e-15
 4.46630403e-15
 4.46630403e-15
 4.46630403e-15
 4.46630403e-15
 4.46630403e-15
 4.46630403e-15
 4.46630403e-15
 4.46630403e-15
 4.46630403e-15
 4.46630403e-15
 4.46630403e-15
 4.46630403e-15
 4.46630403e-15
 4.46630403e-15
 4.46630403e-15
 4.46630403e-15
 4.46630403e-15
 4.46630403e-15
 4.46630403e-15
 4.46630403e-15
 4.46630403e-15
 4.46630403e-15
 4.46630403e-15
 4.46630403e-15
 4.46630403e-15
 4.46630403e-15
 4.46630403e-15
 4.46630403e-15
 4.46630403e-15
 4.46630403e-15
 4.46630403e-15
 4.46630403e-15
 4.46630403e-15
 7.87816369e-08
 7.87816369e-08
 7.87816369e-08
 7.87816369e-08
 7.87816369e-08
 7.87816369e-08
 7.87816369e-08
 7.87816369e-08
 7.87816369e-08
 7.89602043e-08
 7.89602043e-08
 7.89602043e-08
 7.89602043e-08
 7.89602043e-08
 7.89602043e-08
 7.89602043e-08
 7.89602043e-08
 7.89602043e-08
 7.89602043e-08
 7.89602043e-08
 7.89602043e-08
 7.89602043e-08
 7.89602043e-08
 6.32573574e-08
 6.32573574e-08
 6.32573574e-08
 6.32573574e-08
 6.32573574e-08
 6.32573574e-08
 6.32573574e-08
 6.32573574e-08
 6.32573574e-08
 6.32573574e-08
 6.87844109e-08
 6.87844109e-08
 6.87844109e-08
 6.87844109e-08
 6.87844109e-08
 6.87844109e-08
 6.87844109e-08
 6.87844109e-08
 6.87844109e-08
 6.87844109e-08
 6.87844109e-08
 6.87844109e-08
 3.93540716e-08
 3.93540716e-08
 3.93540716e-08
 3.93540716e-08
 2.77673779e-08
 2.77673779e-08
 2.77673779e-08
 2.18101443e-08
 2.18101443e-08
 2.18101443e-08
 1.54558063e-08
 1.54558063e-08
 6.79671444e-09
 6.79671444e-09
 6.79671444e-09