/*--------------------------------*- C++ -*----------------------------------*\
| =========                 |                                                 |
| \\      /  F ield        | OpenFOAM: The Open Source CFD Toolbox           |
|  \\    /   O peration    | Version:  7                                     |
|   \\  /    A nd          | Web:      http://www.OpenFOAM.com               |
|    \\/     M anipulation |                                                 |
\*---------------------------------------------------------------------------*/

FoamFile
{
    version     2.0;
    format      ascii;
    class       dictionary;
    object      Y_C2H2_table;
}

Y_C2H2_table
2
(
101
(
1
(
101
(
 7.92278323e-16
 7.92278323e-16
 7.92278323e-16
 7.92278323e-16
 7.92278323e-16
 7.92278323e-16
 7.92278323e-16
 7.92278323e-16
 7.92278323e-16
 7.92278323e-16
 7.92278323e-16
 7.92278323e-16
 7.92278323e-16
 7.92278323e-16
 7.92278323e-16
 7.92278323e-16
 7.92278323e-16
 7.92278323e-16
 7.92278323e-16
 7.92278323e-16
 7.92278323e-16
 7.92278323e-16
 7.92278323e-16
 7.92278323e-16
 7.92278323e-16
 7.92278323e-16
 7.92278323e-16
 7.92278323e-16
 7.92278323e-16
 7.92278323e-16
 7.92278323e-16
 7.92278323e-16
 7.92278323e-16
 7.92278323e-16
 7.92278323e-16
 7.92278323e-16
 7.92278323e-16
 7.92278323e-16
 7.92278323e-16
 7.92278323e-16
 7.92278323e-16
 7.92278323e-16
 7.92278323e-16
 7.92278323e-16
 7.92278323e-16
 2.02278907e-03
 2.02278907e-03
 8.11705069e-04
 8.11705069e-04
 8.11705069e-04
 8.11705069e-04
 8.11705069e-04
 8.11705069e-04
 8.11705069e-04
 8.11705069e-04
 8.11705069e-04
 8.11705069e-04
 8.11705069e-04
 8.11705069e-04
 8.11705069e-04
 8.11705069e-04
 8.11705069e-04
 8.11705069e-04
 5.64136610e-04
 5.64136610e-04
 5.64136610e-04
 5.64136610e-04
 5.64136610e-04
 5.64136610e-04
 5.64136610e-04
 5.64136610e-04
 5.64136610e-04
 5.64136610e-04
 5.64136610e-04
 5.64136610e-04
 5.80589434e-04
 5.80589434e-04
 5.80589434e-04
 5.80589434e-04
 5.80589434e-04
 5.80589434e-04
 5.80589434e-04
 3.52923323e-04
 3.52923323e-04
 3.52923323e-04
 3.52923323e-04
 3.52923323e-04
 3.52923323e-04
 1.81596267e-04
 1.81596267e-04
 1.81596267e-04
 1.81596267e-04
 1.81596267e-04
 1.81596267e-04
 1.81596267e-04
 3.78391267e-05
 3.78391267e-05
 3.78391267e-05
 3.78391267e-05
 3.78391267e-05
 3.74681903e-07
)
)
1
(
101
(
 6.80226471e-14
 6.80226471e-14
 6.80226471e-14
 6.80226471e-14
 6.80226471e-14
 6.80226471e-14
 6.80226471e-14
 6.80226471e-14
 6.80226471e-14
 6.80226471e-14
 6.80226471e-14
 6.80226471e-14
 6.80226471e-14
 6.80226471e-14
 6.80226471e-14
 6.80226471e-14
 6.80226471e-14
 6.80226471e-14
 6.80226471e-14
 6.80226471e-14
 6.80226471e-14
 6.80226471e-14
 6.80226471e-14
 6.80226471e-14
 6.80226471e-14
 6.80226471e-14
 6.80226471e-14
 6.80226471e-14
 6.80226471e-14
 6.80226471e-14
 6.80226471e-14
 6.80226471e-14
 6.80226471e-14
 6.80226471e-14
 6.80226471e-14
 6.80226471e-14
 6.80226471e-14
 6.80226471e-14
 6.80226471e-14
 6.80226471e-14
 6.80226471e-14
 6.80226471e-14
 6.80226471e-14
 6.80226471e-14
 6.80226471e-14
 2.02278907e-03
 2.02278907e-03
 2.02278907e-03
 8.11705069e-04
 8.11705069e-04
 8.11705069e-04
 8.11705069e-04
 8.11705069e-04
 8.11705069e-04
 8.11705069e-04
 8.11705069e-04
 8.11705069e-04
 8.11705069e-04
 8.11705069e-04
 8.11705069e-04
 8.11705069e-04
 8.11705069e-04
 8.11705069e-04
 8.11705069e-04
 8.11705069e-04
 5.64136610e-04
 5.64136610e-04
 5.64136610e-04
 5.64136610e-04
 5.64136610e-04
 5.64136610e-04
 5.64136610e-04
 5.64136610e-04
 5.64136610e-04
 5.64136610e-04
 5.64136610e-04
 5.64136610e-04
 5.80589434e-04
 5.80589434e-04
 5.80589434e-04
 5.80589434e-04
 5.80589434e-04
 5.80589434e-04
 3.52923323e-04
 3.52923323e-04
 3.52923323e-04
 3.52923323e-04
 3.52923323e-04
 3.52923323e-04
 3.52923323e-04
 1.81596267e-04
 1.81596267e-04
 1.81596267e-04
 1.81596267e-04
 1.81596267e-04
 1.81596267e-04
 1.35976935e-04
 3.78391267e-05
 3.78391267e-05
 3.78391267e-05
 2.23113748e-05
)
)
1
(
101
(
 1.87603837e-13
 1.87603837e-13
 1.87603837e-13
 1.87603837e-13
 1.87603837e-13
 1.87603837e-13
 1.87603837e-13
 1.87603837e-13
 1.87603837e-13
 1.87603837e-13
 1.87603837e-13
 1.87603837e-13
 1.87603837e-13
 1.87603837e-13
 1.87603837e-13
 1.87603837e-13
 1.87603837e-13
 1.87603837e-13
 1.87603837e-13
 1.87603837e-13
 1.87603837e-13
 1.87603837e-13
 1.87603837e-13
 1.87603837e-13
 1.87603837e-13
 1.87603837e-13
 1.87603837e-13
 1.87603837e-13
 1.87603837e-13
 1.87603837e-13
 1.87603837e-13
 1.87603837e-13
 1.87603837e-13
 1.87603837e-13
 1.87603837e-13
 1.87603837e-13
 1.87603837e-13
 1.87603837e-13
 1.87603837e-13
 1.87603837e-13
 1.87603837e-13
 1.87603837e-13
 1.87603837e-13
 1.87603837e-13
 2.02278907e-03
 2.02278907e-03
 2.02278907e-03
 2.02278907e-03
 2.02278907e-03
 2.02278907e-03
 8.11705069e-04
 8.11705069e-04
 8.11705069e-04
 8.11705069e-04
 8.11705069e-04
 8.11705069e-04
 8.11705069e-04
 8.11705069e-04
 8.11705069e-04
 8.11705069e-04
 8.11705069e-04
 8.11705069e-04
 8.11705069e-04
 8.11705069e-04
 8.11705069e-04
 8.11705069e-04
 5.64136610e-04
 5.64136610e-04
 5.64136610e-04
 5.64136610e-04
 5.64136610e-04
 5.64136610e-04
 5.64136610e-04
 5.64136610e-04
 5.64136610e-04
 5.64136610e-04
 5.64136610e-04
 5.64136610e-04
 5.80589434e-04
 5.80589434e-04
 5.80589434e-04
 5.80589434e-04
 5.80589434e-04
 5.80589434e-04
 5.80589434e-04
 3.52923323e-04
 3.52923323e-04
 3.52923323e-04
 3.52923323e-04
 3.52923323e-04
 3.52923323e-04
 1.81596267e-04
 1.81596267e-04
 1.81596267e-04
 1.81596267e-04
 1.81596267e-04
 1.81596267e-04
 1.35976935e-04
 1.35976935e-04
 7.92975084e-05
 7.92975084e-05
)
)
1
(
101
(
 2.31122118e-13
 2.31122118e-13
 2.31122118e-13
 2.31122118e-13
 2.31122118e-13
 2.31122118e-13
 2.31122118e-13
 2.31122118e-13
 2.31122118e-13
 2.31122118e-13
 2.31122118e-13
 2.31122118e-13
 2.31122118e-13
 2.31122118e-13
 2.31122118e-13
 2.31122118e-13
 2.31122118e-13
 2.31122118e-13
 2.31122118e-13
 2.31122118e-13
 2.31122118e-13
 2.31122118e-13
 2.31122118e-13
 2.31122118e-13
 2.31122118e-13
 2.31122118e-13
 2.31122118e-13
 2.31122118e-13
 2.31122118e-13
 2.31122118e-13
 2.31122118e-13
 2.31122118e-13
 2.31122118e-13
 2.31122118e-13
 2.31122118e-13
 2.31122118e-13
 2.31122118e-13
 2.31122118e-13
 2.31122118e-13
 2.31122118e-13
 2.31122118e-13
 2.31122118e-13
 2.31122118e-13
 2.31122118e-13
 2.97823973e-03
 2.02278907e-03
 2.02278907e-03
 2.02278907e-03
 2.02278907e-03
 2.02278907e-03
 2.02278907e-03
 8.11705069e-04
 8.11705069e-04
 8.11705069e-04
 8.11705069e-04
 8.11705069e-04
 8.11705069e-04
 8.11705069e-04
 8.11705069e-04
 8.11705069e-04
 8.11705069e-04
 8.11705069e-04
 8.11705069e-04
 8.11705069e-04
 8.11705069e-04
 8.11705069e-04
 8.11705069e-04
 5.64136610e-04
 5.64136610e-04
 5.64136610e-04
 5.64136610e-04
 5.64136610e-04
 5.64136610e-04
 5.64136610e-04
 5.64136610e-04
 5.64136610e-04
 5.64136610e-04
 5.64136610e-04
 5.64136610e-04
 8.52650894e-04
 5.80589434e-04
 5.80589434e-04
 5.80589434e-04
 5.80589434e-04
 5.80589434e-04
 5.80589434e-04
 3.52923323e-04
 3.52923323e-04
 3.52923323e-04
 3.52923323e-04
 3.52923323e-04
 3.52923323e-04
 3.52923323e-04
 1.81596267e-04
 1.81596267e-04
 1.81596267e-04
 1.81596267e-04
 1.81596267e-04
 1.35976935e-04
 1.45712176e-04
 1.45712176e-04
)
)
1
(
101
(
 3.71253136e-13
 3.71253136e-13
 3.71253136e-13
 3.71253136e-13
 3.71253136e-13
 3.71253136e-13
 3.71253136e-13
 3.71253136e-13
 3.71253136e-13
 3.71253136e-13
 3.71253136e-13
 3.71253136e-13
 3.71253136e-13
 3.71253136e-13
 3.71253136e-13
 3.71253136e-13
 3.71253136e-13
 3.71253136e-13
 3.71253136e-13
 3.71253136e-13
 3.71253136e-13
 3.71253136e-13
 3.71253136e-13
 3.71253136e-13
 3.71253136e-13
 3.71253136e-13
 3.71253136e-13
 3.71253136e-13
 3.71253136e-13
 3.71253136e-13
 3.71253136e-13
 3.71253136e-13
 3.71253136e-13
 3.71253136e-13
 3.71253136e-13
 3.71253136e-13
 3.71253136e-13
 3.71253136e-13
 3.71253136e-13
 3.71253136e-13
 3.71253136e-13
 3.71253136e-13
 3.71253136e-13
 3.71253136e-13
 2.97823973e-03
 2.97823973e-03
 2.97823973e-03
 2.02278907e-03
 2.02278907e-03
 2.02278907e-03
 2.02278907e-03
 2.02278907e-03
 2.02278907e-03
 8.11705069e-04
 8.11705069e-04
 8.11705069e-04
 8.11705069e-04
 8.11705069e-04
 8.11705069e-04
 8.11705069e-04
 8.11705069e-04
 8.11705069e-04
 8.11705069e-04
 8.11705069e-04
 8.11705069e-04
 8.11705069e-04
 8.11705069e-04
 8.11705069e-04
 5.64136610e-04
 5.64136610e-04
 5.64136610e-04
 5.64136610e-04
 5.64136610e-04
 5.64136610e-04
 5.64136610e-04
 5.64136610e-04
 5.64136610e-04
 5.64136610e-04
 5.64136610e-04
 5.64136610e-04
 8.52650894e-04
 5.80589434e-04
 5.80589434e-04
 5.80589434e-04
 5.80589434e-04
 5.80589434e-04
 5.80589434e-04
 5.80589434e-04
 3.52923323e-04
 3.52923323e-04
 3.52923323e-04
 3.52923323e-04
 3.52923323e-04
 3.52923323e-04
 3.70084618e-04
 1.81596267e-04
 1.81596267e-04
 1.81596267e-04
 2.14269427e-04
 2.14269427e-04
 1.45712176e-04
)
)
1
(
101
(
 3.72000457e-13
 3.72000457e-13
 3.72000457e-13
 3.72000457e-13
 3.72000457e-13
 3.72000457e-13
 3.72000457e-13
 3.72000457e-13
 3.72000457e-13
 3.72000457e-13
 3.72000457e-13
 3.72000457e-13
 3.72000457e-13
 3.72000457e-13
 3.72000457e-13
 3.72000457e-13
 3.72000457e-13
 3.72000457e-13
 3.72000457e-13
 3.72000457e-13
 3.72000457e-13
 3.72000457e-13
 3.72000457e-13
 3.72000457e-13
 3.72000457e-13
 3.72000457e-13
 3.72000457e-13
 3.72000457e-13
 3.72000457e-13
 3.72000457e-13
 3.72000457e-13
 3.72000457e-13
 3.72000457e-13
 3.72000457e-13
 3.72000457e-13
 3.72000457e-13
 3.72000457e-13
 3.72000457e-13
 3.72000457e-13
 3.72000457e-13
 3.72000457e-13
 3.72000457e-13
 1.16937110e-12
 2.97823973e-03
 2.97823973e-03
 2.97823973e-03
 2.97823973e-03
 2.97823973e-03
 2.02278907e-03
 2.02278907e-03
 2.02278907e-03
 2.02278907e-03
 2.02278907e-03
 2.02278907e-03
 8.11705069e-04
 8.11705069e-04
 8.11705069e-04
 8.11705069e-04
 8.11705069e-04
 8.11705069e-04
 8.11705069e-04
 8.11705069e-04
 8.11705069e-04
 8.11705069e-04
 8.11705069e-04
 8.11705069e-04
 8.11705069e-04
 8.11705069e-04
 8.11705069e-04
 8.11705069e-04
 5.64136610e-04
 5.64136610e-04
 5.64136610e-04
 5.64136610e-04
 5.64136610e-04
 5.64136610e-04
 5.64136610e-04
 5.64136610e-04
 5.64136610e-04
 5.64136610e-04
 5.64136610e-04
 8.52650894e-04
 8.52650894e-04
 5.80589434e-04
 5.80589434e-04
 5.80589434e-04
 5.80589434e-04
 5.80589434e-04
 5.80589434e-04
 3.52923323e-04
 3.52923323e-04
 3.52923323e-04
 3.52923323e-04
 3.52923323e-04
 3.52923323e-04
 3.70084618e-04
 3.70084618e-04
 2.76708737e-04
 2.76708737e-04
 2.14269427e-04
 2.14269427e-04
)
)
1
(
101
(
 7.04273998e-13
 7.04273998e-13
 7.04273998e-13
 7.04273998e-13
 7.04273998e-13
 7.04273998e-13
 7.04273998e-13
 7.04273998e-13
 7.04273998e-13
 7.04273998e-13
 7.04273998e-13
 7.04273998e-13
 7.04273998e-13
 7.04273998e-13
 7.04273998e-13
 7.04273998e-13
 7.04273998e-13
 7.04273998e-13
 7.04273998e-13
 7.04273998e-13
 7.04273998e-13
 7.04273998e-13
 7.04273998e-13
 7.04273998e-13
 7.04273998e-13
 7.04273998e-13
 7.04273998e-13
 7.04273998e-13
 7.04273998e-13
 7.04273998e-13
 7.04273998e-13
 7.04273998e-13
 7.04273998e-13
 1.16937110e-12
 1.16937110e-12
 1.16937110e-12
 1.16937110e-12
 1.16937110e-12
 1.16937110e-12
 1.16937110e-12
 1.16937110e-12
 1.16937110e-12
 1.16937110e-12
 2.97823973e-03
 2.97823973e-03
 2.97823973e-03
 2.97823973e-03
 2.97823973e-03
 2.97823973e-03
 2.02278907e-03
 2.02278907e-03
 2.02278907e-03
 2.02278907e-03
 2.02278907e-03
 2.02278907e-03
 2.02278907e-03
 8.11705069e-04
 8.11705069e-04
 8.11705069e-04
 8.11705069e-04
 8.11705069e-04
 8.11705069e-04
 8.11705069e-04
 8.11705069e-04
 8.11705069e-04
 8.11705069e-04
 8.11705069e-04
 8.11705069e-04
 8.11705069e-04
 8.11705069e-04
 8.11705069e-04
 5.64136610e-04
 5.64136610e-04
 5.64136610e-04
 5.64136610e-04
 5.64136610e-04
 5.64136610e-04
 5.64136610e-04
 5.64136610e-04
 5.64136610e-04
 5.64136610e-04
 5.64136610e-04
 8.52650894e-04
 8.52650894e-04
 5.80589434e-04
 5.80589434e-04
 5.80589434e-04
 5.80589434e-04
 5.80589434e-04
 5.80589434e-04
 5.80589434e-04
 3.52923323e-04
 3.52923323e-04
 3.52923323e-04
 3.52923323e-04
 3.52923323e-04
 3.70084618e-04
 3.70084618e-04
 2.76708737e-04
 2.76708737e-04
 2.14269427e-04
)
)
1
(
101
(
 6.35727597e-13
 6.35727597e-13
 6.35727597e-13
 6.35727597e-13
 6.35727597e-13
 6.35727597e-13
 6.35727597e-13
 6.35727597e-13
 6.35727597e-13
 6.35727597e-13
 6.35727597e-13
 6.35727597e-13
 6.35727597e-13
 6.35727597e-13
 6.35727597e-13
 6.35727597e-13
 6.35727597e-13
 6.35727597e-13
 6.35727597e-13
 6.35727597e-13
 6.35727597e-13
 6.35727597e-13
 6.35727597e-13
 6.35727597e-13
 6.35727597e-13
 6.35727597e-13
 1.16937110e-12
 1.16937110e-12
 1.16937110e-12
 1.16937110e-12
 1.16937110e-12
 1.16937110e-12
 1.16937110e-12
 1.16937110e-12
 1.16937110e-12
 1.16937110e-12
 1.16937110e-12
 1.16937110e-12
 1.16937110e-12
 1.16937110e-12
 1.16937110e-12
 1.16937110e-12
 1.16937110e-12
 2.97823973e-03
 2.97823973e-03
 2.97823973e-03
 2.97823973e-03
 2.97823973e-03
 2.97823973e-03
 2.97823973e-03
 2.02278907e-03
 2.02278907e-03
 2.02278907e-03
 2.02278907e-03
 2.02278907e-03
 2.02278907e-03
 2.02278907e-03
 8.11705069e-04
 8.11705069e-04
 8.11705069e-04
 8.11705069e-04
 8.11705069e-04
 8.11705069e-04
 8.11705069e-04
 8.11705069e-04
 8.11705069e-04
 8.11705069e-04
 8.11705069e-04
 8.11705069e-04
 8.11705069e-04
 8.11705069e-04
 8.11705069e-04
 5.64136610e-04
 5.64136610e-04
 5.64136610e-04
 5.64136610e-04
 5.64136610e-04
 5.64136610e-04
 5.64136610e-04
 5.64136610e-04
 5.64136610e-04
 5.64136610e-04
 5.64136610e-04
 8.52650894e-04
 8.52650894e-04
 8.52650894e-04
 5.80589434e-04
 5.80589434e-04
 5.80589434e-04
 5.80589434e-04
 5.80589434e-04
 5.80589434e-04
 5.36865500e-04
 3.52923323e-04
 3.52923323e-04
 3.52923323e-04
 4.33040684e-04
 4.33040684e-04
 4.33040684e-04
 2.76708737e-04
 2.76708737e-04
)
)
1
(
101
(
 6.99651642e-13
 6.99651642e-13
 6.99651642e-13
 6.99651642e-13
 6.99651642e-13
 6.99651642e-13
 6.99651642e-13
 6.99651642e-13
 6.99651642e-13
 6.99651642e-13
 6.99651642e-13
 6.99651642e-13
 6.99651642e-13
 6.99651642e-13
 6.99651642e-13
 6.99651642e-13
 6.99651642e-13
 6.99651642e-13
 6.99651642e-13
 1.16937110e-12
 1.16937110e-12
 1.16937110e-12
 1.16937110e-12
 1.16937110e-12
 1.16937110e-12
 1.16937110e-12
 1.16937110e-12
 1.16937110e-12
 1.16937110e-12
 1.16937110e-12
 1.16937110e-12
 1.16937110e-12
 1.16937110e-12
 1.16937110e-12
 1.16937110e-12
 1.16937110e-12
 1.16937110e-12
 1.16937110e-12
 1.16937110e-12
 1.16937110e-12
 1.16937110e-12
 1.16937110e-12
 2.97823973e-03
 2.97823973e-03
 2.97823973e-03
 2.97823973e-03
 2.97823973e-03
 2.97823973e-03
 2.97823973e-03
 2.97823973e-03
 2.97823973e-03
 2.02278907e-03
 2.02278907e-03
 2.02278907e-03
 2.02278907e-03
 2.02278907e-03
 2.02278907e-03
 2.02278907e-03
 2.02278907e-03
 8.11705069e-04
 8.11705069e-04
 8.11705069e-04
 8.11705069e-04
 8.11705069e-04
 8.11705069e-04
 8.11705069e-04
 8.11705069e-04
 8.11705069e-04
 8.11705069e-04
 8.11705069e-04
 8.11705069e-04
 8.11705069e-04
 8.11705069e-04
 5.64136610e-04
 5.64136610e-04
 5.64136610e-04
 5.64136610e-04
 5.64136610e-04
 5.64136610e-04
 5.64136610e-04
 5.64136610e-04
 5.64136610e-04
 5.64136610e-04
 5.64136610e-04
 8.52650894e-04
 8.52650894e-04
 8.52650894e-04
 5.80589434e-04
 5.80589434e-04
 5.80589434e-04
 5.80589434e-04
 5.80589434e-04
 5.80589434e-04
 5.36865500e-04
 5.36865500e-04
 5.67061784e-04
 5.67061784e-04
 4.33040684e-04
 4.33040684e-04
 4.33040684e-04
 4.33040684e-04
)
)
1
(
101
(
 1.42047907e-12
 1.42047907e-12
 1.42047907e-12
 1.42047907e-12
 1.42047907e-12
 1.42047907e-12
 1.42047907e-12
 1.42047907e-12
 1.42047907e-12
 1.42047907e-12
 1.42047907e-12
 1.42047907e-12
 1.42047907e-12
 1.42047907e-12
 1.16937110e-12
 1.16937110e-12
 1.16937110e-12
 1.16937110e-12
 1.16937110e-12
 1.16937110e-12
 1.16937110e-12
 1.16937110e-12
 1.16937110e-12
 1.16937110e-12
 1.16937110e-12
 1.16937110e-12
 1.16937110e-12
 1.16937110e-12
 1.16937110e-12
 1.16937110e-12
 1.16937110e-12
 1.16937110e-12
 1.16937110e-12
 1.16937110e-12
 1.16937110e-12
 1.16937110e-12
 1.16937110e-12
 1.16937110e-12
 1.16937110e-12
 1.16937110e-12
 1.16937110e-12
 1.16937110e-12
 2.97823973e-03
 2.97823973e-03
 2.97823973e-03
 2.97823973e-03
 2.97823973e-03
 2.97823973e-03
 2.97823973e-03
 2.97823973e-03
 2.97823973e-03
 2.97823973e-03
 2.02278907e-03
 2.02278907e-03
 2.02278907e-03
 2.02278907e-03
 2.02278907e-03
 2.02278907e-03
 2.02278907e-03
 2.02278907e-03
 8.11705069e-04
 8.11705069e-04
 8.11705069e-04
 8.11705069e-04
 8.11705069e-04
 8.11705069e-04
 8.11705069e-04
 8.11705069e-04
 8.11705069e-04
 8.11705069e-04
 8.11705069e-04
 8.11705069e-04
 8.11705069e-04
 8.11705069e-04
 8.11705069e-04
 5.64136610e-04
 5.64136610e-04
 5.64136610e-04
 5.64136610e-04
 5.64136610e-04
 5.64136610e-04
 5.64136610e-04
 5.64136610e-04
 5.64136610e-04
 5.64136610e-04
 8.52650894e-04
 8.52650894e-04
 8.52650894e-04
 8.52650894e-04
 5.80589434e-04
 5.80589434e-04
 5.80589434e-04
 5.80589434e-04
 5.80589434e-04
 5.36865500e-04
 5.36865500e-04
 5.67061784e-04
 5.67061784e-04
 4.33040684e-04
 4.33040684e-04
 4.33040684e-04
)
)
1
(
101
(
 1.06139952e-12
 1.06139952e-12
 1.06139952e-12
 1.06139952e-12
 1.06139952e-12
 1.06139952e-12
 1.06139952e-12
 1.06139952e-12
 1.06139952e-12
 1.16937110e-12
 1.16937110e-12
 1.16937110e-12
 1.16937110e-12
 1.16937110e-12
 1.16937110e-12
 1.16937110e-12
 1.16937110e-12
 1.16937110e-12
 1.16937110e-12
 1.16937110e-12
 1.16937110e-12
 1.16937110e-12
 1.16937110e-12
 1.16937110e-12
 1.16937110e-12
 1.16937110e-12
 1.16937110e-12
 1.16937110e-12
 1.16937110e-12
 1.16937110e-12
 1.16937110e-12
 1.16937110e-12
 1.16937110e-12
 1.16937110e-12
 1.16937110e-12
 1.16937110e-12
 1.16937110e-12
 1.16937110e-12
 1.16937110e-12
 1.16937110e-12
 1.16937110e-12
 1.16937110e-12
 2.97823973e-03
 2.97823973e-03
 2.97823973e-03
 2.97823973e-03
 2.97823973e-03
 2.97823973e-03
 2.97823973e-03
 2.97823973e-03
 2.97823973e-03
 2.97823973e-03
 2.97823973e-03
 2.97823973e-03
 2.02278907e-03
 2.02278907e-03
 2.02278907e-03
 2.02278907e-03
 2.02278907e-03
 2.02278907e-03
 2.02278907e-03
 2.02278907e-03
 8.11705069e-04
 8.11705069e-04
 8.11705069e-04
 8.11705069e-04
 8.11705069e-04
 8.11705069e-04
 8.11705069e-04
 8.11705069e-04
 8.11705069e-04
 8.11705069e-04
 8.11705069e-04
 8.11705069e-04
 8.11705069e-04
 8.11705069e-04
 5.64136610e-04
 5.64136610e-04
 5.64136610e-04
 5.64136610e-04
 5.64136610e-04
 5.64136610e-04
 5.64136610e-04
 5.64136610e-04
 5.64136610e-04
 5.64136610e-04
 8.52650894e-04
 8.52650894e-04
 8.52650894e-04
 8.52650894e-04
 7.84524103e-04
 5.80589434e-04
 5.80589434e-04
 5.80589434e-04
 5.80589434e-04
 5.36865500e-04
 5.36865500e-04
 5.67061784e-04
 5.67061784e-04
 4.33040684e-04
 4.33040684e-04
)
)
1
(
101
(
 1.22693167e-12
 1.22693167e-12
 1.22693167e-12
 1.22693167e-12
 1.22693167e-12
 1.22693167e-12
 1.16937110e-12
 1.16937110e-12
 1.16937110e-12
 1.16937110e-12
 1.16937110e-12
 1.16937110e-12
 1.16937110e-12
 1.16937110e-12
 1.16937110e-12
 1.16937110e-12
 1.16937110e-12
 1.16937110e-12
 1.16937110e-12
 1.16937110e-12
 1.16937110e-12
 1.16937110e-12
 1.16937110e-12
 1.16937110e-12
 1.16937110e-12
 1.16937110e-12
 1.16937110e-12
 1.16937110e-12
 1.16937110e-12
 1.16937110e-12
 1.16937110e-12
 1.16937110e-12
 1.16937110e-12
 1.16937110e-12
 1.16937110e-12
 1.16937110e-12
 1.16937110e-12
 1.16937110e-12
 1.16937110e-12
 1.16937110e-12
 1.16937110e-12
 1.16937110e-12
 2.97823973e-03
 2.97823973e-03
 2.97823973e-03
 2.97823973e-03
 2.97823973e-03
 2.97823973e-03
 2.97823973e-03
 2.97823973e-03
 2.97823973e-03
 2.97823973e-03
 2.97823973e-03
 2.97823973e-03
 2.97823973e-03
 2.02278907e-03
 2.02278907e-03
 2.02278907e-03
 2.02278907e-03
 2.02278907e-03
 2.02278907e-03
 2.02278907e-03
 2.02278907e-03
 8.11705069e-04
 8.11705069e-04
 8.11705069e-04
 8.11705069e-04
 8.11705069e-04
 8.11705069e-04
 8.11705069e-04
 8.11705069e-04
 8.11705069e-04
 8.11705069e-04
 8.11705069e-04
 8.11705069e-04
 8.11705069e-04
 8.11705069e-04
 5.64136610e-04
 5.64136610e-04
 5.64136610e-04
 5.64136610e-04
 5.64136610e-04
 5.64136610e-04
 5.64136610e-04
 5.64136610e-04
 5.64136610e-04
 5.64136610e-04
 8.52650894e-04
 8.52650894e-04
 8.52650894e-04
 8.52650894e-04
 7.84524103e-04
 7.84524103e-04
 8.27577419e-04
 8.27577419e-04
 8.27577419e-04
 5.36865500e-04
 5.36865500e-04
 5.67061784e-04
 5.67061784e-04
 4.33040684e-04
)
)
1
(
101
(
 1.52746963e-12
 1.52746963e-12
 1.52746963e-12
 1.16937110e-12
 1.16937110e-12
 1.16937110e-12
 1.16937110e-12
 1.16937110e-12
 1.16937110e-12
 1.16937110e-12
 1.16937110e-12
 1.16937110e-12
 1.16937110e-12
 1.16937110e-12
 1.16937110e-12
 1.16937110e-12
 1.16937110e-12
 1.16937110e-12
 1.16937110e-12
 1.16937110e-12
 1.16937110e-12
 1.16937110e-12
 1.16937110e-12
 1.16937110e-12
 1.16937110e-12
 1.16937110e-12
 1.16937110e-12
 1.16937110e-12
 1.16937110e-12
 1.16937110e-12
 1.16937110e-12
 1.16937110e-12
 1.16937110e-12
 1.16937110e-12
 1.16937110e-12
 1.16937110e-12
 1.16937110e-12
 1.16937110e-12
 1.16937110e-12
 1.16937110e-12
 1.16937110e-12
 4.48398124e-03
 2.97823973e-03
 2.97823973e-03
 2.97823973e-03
 2.97823973e-03
 2.97823973e-03
 2.97823973e-03
 2.97823973e-03
 2.97823973e-03
 2.97823973e-03
 2.97823973e-03
 2.97823973e-03
 2.97823973e-03
 2.97823973e-03
 2.97823973e-03
 2.02278907e-03
 2.02278907e-03
 2.02278907e-03
 2.02278907e-03
 2.02278907e-03
 2.02278907e-03
 2.02278907e-03
 2.02278907e-03
 2.02278907e-03
 8.11705069e-04
 8.11705069e-04
 8.11705069e-04
 8.11705069e-04
 8.11705069e-04
 8.11705069e-04
 8.11705069e-04
 8.11705069e-04
 8.11705069e-04
 8.11705069e-04
 8.11705069e-04
 8.11705069e-04
 8.11705069e-04
 5.64136610e-04
 5.64136610e-04
 5.64136610e-04
 5.64136610e-04
 5.64136610e-04
 5.64136610e-04
 5.64136610e-04
 5.64136610e-04
 5.64136610e-04
 5.64136610e-04
 8.52650894e-04
 8.52650894e-04
 8.52650894e-04
 8.52650894e-04
 7.84524103e-04
 7.84524103e-04
 8.27577419e-04
 8.27577419e-04
 8.27577419e-04
 8.27577419e-04
 5.36865500e-04
 5.67061784e-04
 5.67061784e-04
)
)
1
(
101
(
 3.71771560e-13
 3.71771560e-13
 1.16937110e-12
 1.16937110e-12
 1.16937110e-12
 1.16937110e-12
 1.16937110e-12
 1.16937110e-12
 1.16937110e-12
 1.16937110e-12
 1.16937110e-12
 1.16937110e-12
 1.16937110e-12
 1.16937110e-12
 1.16937110e-12
 1.16937110e-12
 1.16937110e-12
 1.16937110e-12
 1.16937110e-12
 1.16937110e-12
 1.16937110e-12
 1.16937110e-12
 1.16937110e-12
 1.16937110e-12
 1.16937110e-12
 1.16937110e-12
 1.16937110e-12
 1.16937110e-12
 1.16937110e-12
 1.16937110e-12
 1.16937110e-12
 1.16937110e-12
 1.16937110e-12
 1.16937110e-12
 1.16937110e-12
 1.16937110e-12
 1.16937110e-12
 1.16937110e-12
 1.16937110e-12
 1.16937110e-12
 1.16937110e-12
 4.48398124e-03
 4.48398124e-03
 2.97823973e-03
 2.97823973e-03
 2.97823973e-03
 2.97823973e-03
 2.97823973e-03
 2.97823973e-03
 2.97823973e-03
 2.97823973e-03
 2.97823973e-03
 2.97823973e-03
 2.97823973e-03
 2.97823973e-03
 2.97823973e-03
 2.97823973e-03
 2.02278907e-03
 2.02278907e-03
 2.02278907e-03
 2.02278907e-03
 2.02278907e-03
 2.02278907e-03
 2.02278907e-03
 2.02278907e-03
 2.02278907e-03
 8.11705069e-04
 8.11705069e-04
 8.11705069e-04
 8.11705069e-04
 8.11705069e-04
 8.11705069e-04
 8.11705069e-04
 8.11705069e-04
 8.11705069e-04
 8.11705069e-04
 8.11705069e-04
 8.11705069e-04
 8.11705069e-04
 8.11705069e-04
 5.64136610e-04
 5.64136610e-04
 5.64136610e-04
 5.64136610e-04
 5.64136610e-04
 5.64136610e-04
 5.64136610e-04
 5.64136610e-04
 1.11855794e-03
 8.52650894e-04
 8.52650894e-04
 8.52650894e-04
 1.26919981e-03
 1.26919981e-03
 1.26919981e-03
 8.27577419e-04
 8.27577419e-04
 8.27577419e-04
 8.27577419e-04
 8.27577419e-04
 5.67061784e-04
)
)
1
(
101
(
 7.70646829e-22
 1.16937110e-12
 1.16937110e-12
 1.16937110e-12
 1.16937110e-12
 1.16937110e-12
 1.16937110e-12
 1.16937110e-12
 1.16937110e-12
 1.16937110e-12
 1.16937110e-12
 1.16937110e-12
 1.16937110e-12
 1.16937110e-12
 1.16937110e-12
 1.16937110e-12
 1.16937110e-12
 1.16937110e-12
 1.16937110e-12
 1.16937110e-12
 1.16937110e-12
 1.16937110e-12
 1.16937110e-12
 1.16937110e-12
 1.16937110e-12
 1.16937110e-12
 1.16937110e-12
 1.16937110e-12
 1.16937110e-12
 1.16937110e-12
 1.16937110e-12
 1.16937110e-12
 1.16937110e-12
 1.16937110e-12
 1.16937110e-12
 1.16937110e-12
 1.16937110e-12
 1.16937110e-12
 1.16937110e-12
 1.16937110e-12
 4.48398124e-03
 4.48398124e-03
 4.48398124e-03
 4.48398124e-03
 2.97823973e-03
 2.97823973e-03
 2.97823973e-03
 2.97823973e-03
 2.97823973e-03
 2.97823973e-03
 2.97823973e-03
 2.97823973e-03
 2.97823973e-03
 2.97823973e-03
 2.97823973e-03
 2.97823973e-03
 2.97823973e-03
 2.97823973e-03
 2.02278907e-03
 2.02278907e-03
 2.02278907e-03
 2.02278907e-03
 2.02278907e-03
 2.02278907e-03
 2.02278907e-03
 2.02278907e-03
 2.02278907e-03
 2.02278907e-03
 8.11705069e-04
 8.11705069e-04
 8.11705069e-04
 8.11705069e-04
 8.11705069e-04
 8.11705069e-04
 8.11705069e-04
 8.11705069e-04
 8.11705069e-04
 8.11705069e-04
 8.11705069e-04
 8.11705069e-04
 8.11705069e-04
 1.11579410e-03
 5.64136610e-04
 5.64136610e-04
 5.64136610e-04
 5.64136610e-04
 5.64136610e-04
 5.64136610e-04
 5.64136610e-04
 1.11855794e-03
 1.11855794e-03
 1.13083736e-03
 1.13083736e-03
 1.26919981e-03
 1.26919981e-03
 1.26919981e-03
 1.26919981e-03
 8.27577419e-04
 8.27577419e-04
 8.27577419e-04
 8.27577419e-04
)
)
1
(
101
(
 7.70646829e-22
 1.78867537e-12
 1.78867537e-12
 1.78867537e-12
 1.78867537e-12
 1.78867537e-12
 1.78867537e-12
 1.78867537e-12
 1.78867537e-12
 1.78867537e-12
 1.78867537e-12
 1.78867537e-12
 1.78867537e-12
 1.78867537e-12
 1.78867537e-12
 1.78867537e-12
 1.78867537e-12
 1.78867537e-12
 1.78867537e-12
 1.78867537e-12
 1.78867537e-12
 1.78867537e-12
 1.78867537e-12
 1.78867537e-12
 1.78867537e-12
 1.78867537e-12
 1.78867537e-12
 1.78867537e-12
 1.78867537e-12
 1.78867537e-12
 1.78867537e-12
 1.78867537e-12
 1.78867537e-12
 1.78867537e-12
 1.78867537e-12
 1.78867537e-12
 1.78867537e-12
 1.78867537e-12
 1.78867537e-12
 1.78867537e-12
 4.48398124e-03
 4.48398124e-03
 4.48398124e-03
 4.48398124e-03
 4.48398124e-03
 2.97823973e-03
 2.97823973e-03
 2.97823973e-03
 2.97823973e-03
 2.97823973e-03
 2.97823973e-03
 2.97823973e-03
 2.97823973e-03
 2.97823973e-03
 2.97823973e-03
 2.97823973e-03
 2.97823973e-03
 2.97823973e-03
 2.97823973e-03
 2.02278907e-03
 2.02278907e-03
 2.02278907e-03
 2.02278907e-03
 2.02278907e-03
 2.02278907e-03
 2.02278907e-03
 2.02278907e-03
 2.02278907e-03
 2.02278907e-03
 8.11705069e-04
 8.11705069e-04
 8.11705069e-04
 8.11705069e-04
 8.11705069e-04
 8.11705069e-04
 8.11705069e-04
 8.11705069e-04
 8.11705069e-04
 8.11705069e-04
 8.11705069e-04
 8.11705069e-04
 8.11705069e-04
 1.11579410e-03
 1.11579410e-03
 5.64136610e-04
 5.64136610e-04
 5.64136610e-04
 5.64136610e-04
 5.64136610e-04
 1.11855794e-03
 1.11855794e-03
 1.11855794e-03
 1.13083736e-03
 1.13083736e-03
 1.26919981e-03
 1.26919981e-03
 1.26919981e-03
 1.26919981e-03
 1.26919981e-03
 8.27577419e-04
 8.27577419e-04
)
)
1
(
101
(
 2.27441508e-12
 2.27441508e-12
 2.27441508e-12
 2.27441508e-12
 2.27441508e-12
 2.27441508e-12
 2.27441508e-12
 2.27441508e-12
 2.27441508e-12
 2.27441508e-12
 2.27441508e-12
 2.27441508e-12
 2.27441508e-12
 2.27441508e-12
 2.27441508e-12
 2.27441508e-12
 2.27441508e-12
 2.27441508e-12
 2.27441508e-12
 2.27441508e-12
 2.27441508e-12
 2.27441508e-12
 2.27441508e-12
 2.27441508e-12
 2.27441508e-12
 2.27441508e-12
 2.27441508e-12
 2.27441508e-12
 2.27441508e-12
 2.27441508e-12
 2.27441508e-12
 2.27441508e-12
 2.27441508e-12
 2.27441508e-12
 2.27441508e-12
 2.27441508e-12
 2.27441508e-12
 2.27441508e-12
 2.27441508e-12
 2.27441508e-12
 4.48398124e-03
 4.48398124e-03
 4.48398124e-03
 4.48398124e-03
 4.48398124e-03
 4.48398124e-03
 2.97823973e-03
 2.97823973e-03
 2.97823973e-03
 2.97823973e-03
 2.97823973e-03
 2.97823973e-03
 2.97823973e-03
 2.97823973e-03
 2.97823973e-03
 2.97823973e-03
 2.97823973e-03
 2.97823973e-03
 2.97823973e-03
 2.97823973e-03
 2.97823973e-03
 2.02278907e-03
 2.02278907e-03
 2.02278907e-03
 2.02278907e-03
 2.02278907e-03
 2.02278907e-03
 2.02278907e-03
 2.02278907e-03
 2.02278907e-03
 2.02278907e-03
 8.11705069e-04
 8.11705069e-04
 8.11705069e-04
 8.11705069e-04
 8.11705069e-04
 8.11705069e-04
 8.11705069e-04
 8.11705069e-04
 8.11705069e-04
 8.11705069e-04
 8.11705069e-04
 8.11705069e-04
 1.11579410e-03
 1.11579410e-03
 1.11579410e-03
 5.64136610e-04
 5.64136610e-04
 5.64136610e-04
 5.64136610e-04
 1.11855794e-03
 1.11855794e-03
 1.11855794e-03
 1.13083736e-03
 1.13083736e-03
 1.26919981e-03
 1.26919981e-03
 1.26919981e-03
 1.26919981e-03
 1.26919981e-03
 1.26919981e-03
)
)
1
(
101
(
 2.67830241e-12
 2.67830241e-12
 2.67830241e-12
 2.67830241e-12
 2.67830241e-12
 2.67830241e-12
 2.67830241e-12
 2.67830241e-12
 2.67830241e-12
 2.67830241e-12
 2.67830241e-12
 2.67830241e-12
 2.67830241e-12
 2.67830241e-12
 2.67830241e-12
 2.67830241e-12
 2.67830241e-12
 2.67830241e-12
 2.67830241e-12
 2.67830241e-12
 2.67830241e-12
 2.67830241e-12
 2.67830241e-12
 2.67830241e-12
 2.67830241e-12
 2.67830241e-12
 2.67830241e-12
 2.67830241e-12
 2.67830241e-12
 2.67830241e-12
 2.67830241e-12
 2.67830241e-12
 2.67830241e-12
 2.67830241e-12
 2.67830241e-12
 2.67830241e-12
 2.67830241e-12
 2.67830241e-12
 2.67830241e-12
 4.48398124e-03
 4.48398124e-03
 4.48398124e-03
 4.48398124e-03
 4.48398124e-03
 4.48398124e-03
 4.48398124e-03
 4.48398124e-03
 4.48398124e-03
 2.97823973e-03
 2.97823973e-03
 2.97823973e-03
 2.97823973e-03
 2.97823973e-03
 2.97823973e-03
 2.97823973e-03
 2.97823973e-03
 2.97823973e-03
 2.97823973e-03
 2.97823973e-03
 2.97823973e-03
 2.97823973e-03
 2.97823973e-03
 2.02278907e-03
 2.02278907e-03
 2.02278907e-03
 2.02278907e-03
 2.02278907e-03
 2.02278907e-03
 2.02278907e-03
 2.02278907e-03
 2.02278907e-03
 2.02278907e-03
 8.11705069e-04
 8.11705069e-04
 8.11705069e-04
 8.11705069e-04
 8.11705069e-04
 8.11705069e-04
 8.11705069e-04
 8.11705069e-04
 8.11705069e-04
 8.11705069e-04
 8.11705069e-04
 8.11705069e-04
 1.11579410e-03
 1.11579410e-03
 1.11579410e-03
 1.11579410e-03
 1.31649157e-03
 1.31649157e-03
 1.31649157e-03
 1.11855794e-03
 1.11855794e-03
 1.11855794e-03
 1.13083736e-03
 1.13083736e-03
 1.26919981e-03
 1.26919981e-03
 1.26919981e-03