/*--------------------------------*- C++ -*----------------------------------*\
| =========                 |                                                 |
| \\      /  F ield        | OpenFOAM: The Open Source CFD Toolbox           |
|  \\    /   O peration    | Version:  7                                     |
|   \\  /    A nd          | Web:      http://www.OpenFOAM.com               |
|    \\/     M anipulation |                                                 |
\*---------------------------------------------------------------------------*/

FoamFile
{
    version     2.0;
    format      ascii;
    class       dictionary;
    object      Y_C2H6_table;
}

Y_C2H6_table
2
(
101
(
1
(
101
(
 4.66664412e-18
 4.66664412e-18
 4.66664412e-18
 4.66664412e-18
 4.66664412e-18
 4.66664412e-18
 4.66664412e-18
 4.66664412e-18
 4.66664412e-18
 4.66664412e-18
 4.66664412e-18
 4.66664412e-18
 4.66664412e-18
 4.66664412e-18
 4.66664412e-18
 4.66664412e-18
 4.66664412e-18
 4.66664412e-18
 4.66664412e-18
 4.66664412e-18
 4.66664412e-18
 4.66664412e-18
 4.66664412e-18
 4.66664412e-18
 4.66664412e-18
 4.66664412e-18
 4.66664412e-18
 4.66664412e-18
 4.66664412e-18
 4.66664412e-18
 4.66664412e-18
 4.66664412e-18
 4.66664412e-18
 4.66664412e-18
 4.66664412e-18
 4.66664412e-18
 4.66664412e-18
 4.66664412e-18
 4.66664412e-18
 4.66664412e-18
 4.66664412e-18
 4.66664412e-18
 4.66664412e-18
 4.66664412e-18
 4.66664412e-18
 2.62013074e-04
 2.62013074e-04
 3.97937505e-04
 3.97937505e-04
 3.97937505e-04
 3.97937505e-04
 3.97937505e-04
 3.97937505e-04
 3.97937505e-04
 3.97937505e-04
 3.97937505e-04
 3.97937505e-04
 3.97937505e-04
 3.97937505e-04
 3.97937505e-04
 3.97937505e-04
 3.97937505e-04
 3.97937505e-04
 2.92628386e-04
 2.92628386e-04
 2.92628386e-04
 2.92628386e-04
 2.92628386e-04
 2.92628386e-04
 2.92628386e-04
 2.92628386e-04
 2.92628386e-04
 2.92628386e-04
 2.92628386e-04
 2.92628386e-04
 7.15917735e-05
 7.15917735e-05
 7.15917735e-05
 7.15917735e-05
 7.15917735e-05
 7.15917735e-05
 7.15917735e-05
 5.36040216e-05
 5.36040216e-05
 5.36040216e-05
 5.36040216e-05
 5.36040216e-05
 5.36040216e-05
 2.88272975e-05
 2.88272975e-05
 2.88272975e-05
 2.88272975e-05
 2.88272975e-05
 2.88272975e-05
 2.88272975e-05
 4.18041955e-06
 4.18041955e-06
 4.18041955e-06
 4.18041955e-06
 4.18041955e-06
 3.29009160e-08
)
)
1
(
101
(
 4.68357990e-16
 4.68357990e-16
 4.68357990e-16
 4.68357990e-16
 4.68357990e-16
 4.68357990e-16
 4.68357990e-16
 4.68357990e-16
 4.68357990e-16
 4.68357990e-16
 4.68357990e-16
 4.68357990e-16
 4.68357990e-16
 4.68357990e-16
 4.68357990e-16
 4.68357990e-16
 4.68357990e-16
 4.68357990e-16
 4.68357990e-16
 4.68357990e-16
 4.68357990e-16
 4.68357990e-16
 4.68357990e-16
 4.68357990e-16
 4.68357990e-16
 4.68357990e-16
 4.68357990e-16
 4.68357990e-16
 4.68357990e-16
 4.68357990e-16
 4.68357990e-16
 4.68357990e-16
 4.68357990e-16
 4.68357990e-16
 4.68357990e-16
 4.68357990e-16
 4.68357990e-16
 4.68357990e-16
 4.68357990e-16
 4.68357990e-16
 4.68357990e-16
 4.68357990e-16
 4.68357990e-16
 4.68357990e-16
 4.68357990e-16
 2.62013074e-04
 2.62013074e-04
 2.62013074e-04
 3.97937505e-04
 3.97937505e-04
 3.97937505e-04
 3.97937505e-04
 3.97937505e-04
 3.97937505e-04
 3.97937505e-04
 3.97937505e-04
 3.97937505e-04
 3.97937505e-04
 3.97937505e-04
 3.97937505e-04
 3.97937505e-04
 3.97937505e-04
 3.97937505e-04
 3.97937505e-04
 3.97937505e-04
 2.92628386e-04
 2.92628386e-04
 2.92628386e-04
 2.92628386e-04
 2.92628386e-04
 2.92628386e-04
 2.92628386e-04
 2.92628386e-04
 2.92628386e-04
 2.92628386e-04
 2.92628386e-04
 2.92628386e-04
 7.15917735e-05
 7.15917735e-05
 7.15917735e-05
 7.15917735e-05
 7.15917735e-05
 7.15917735e-05
 5.36040216e-05
 5.36040216e-05
 5.36040216e-05
 5.36040216e-05
 5.36040216e-05
 5.36040216e-05
 5.36040216e-05
 2.88272975e-05
 2.88272975e-05
 2.88272975e-05
 2.88272975e-05
 2.88272975e-05
 2.88272975e-05
 1.41786035e-05
 4.18041955e-06
 4.18041955e-06
 4.18041955e-06
 1.47167634e-06
)
)
1
(
101
(
 1.44036942e-15
 1.44036942e-15
 1.44036942e-15
 1.44036942e-15
 1.44036942e-15
 1.44036942e-15
 1.44036942e-15
 1.44036942e-15
 1.44036942e-15
 1.44036942e-15
 1.44036942e-15
 1.44036942e-15
 1.44036942e-15
 1.44036942e-15
 1.44036942e-15
 1.44036942e-15
 1.44036942e-15
 1.44036942e-15
 1.44036942e-15
 1.44036942e-15
 1.44036942e-15
 1.44036942e-15
 1.44036942e-15
 1.44036942e-15
 1.44036942e-15
 1.44036942e-15
 1.44036942e-15
 1.44036942e-15
 1.44036942e-15
 1.44036942e-15
 1.44036942e-15
 1.44036942e-15
 1.44036942e-15
 1.44036942e-15
 1.44036942e-15
 1.44036942e-15
 1.44036942e-15
 1.44036942e-15
 1.44036942e-15
 1.44036942e-15
 1.44036942e-15
 1.44036942e-15
 1.44036942e-15
 1.44036942e-15
 2.62013074e-04
 2.62013074e-04
 2.62013074e-04
 2.62013074e-04
 2.62013074e-04
 2.62013074e-04
 3.97937505e-04
 3.97937505e-04
 3.97937505e-04
 3.97937505e-04
 3.97937505e-04
 3.97937505e-04
 3.97937505e-04
 3.97937505e-04
 3.97937505e-04
 3.97937505e-04
 3.97937505e-04
 3.97937505e-04
 3.97937505e-04
 3.97937505e-04
 3.97937505e-04
 3.97937505e-04
 2.92628386e-04
 2.92628386e-04
 2.92628386e-04
 2.92628386e-04
 2.92628386e-04
 2.92628386e-04
 2.92628386e-04
 2.92628386e-04
 2.92628386e-04
 2.92628386e-04
 2.92628386e-04
 2.92628386e-04
 7.15917735e-05
 7.15917735e-05
 7.15917735e-05
 7.15917735e-05
 7.15917735e-05
 7.15917735e-05
 7.15917735e-05
 5.36040216e-05
 5.36040216e-05
 5.36040216e-05
 5.36040216e-05
 5.36040216e-05
 5.36040216e-05
 2.88272975e-05
 2.88272975e-05
 2.88272975e-05
 2.88272975e-05
 2.88272975e-05
 2.88272975e-05
 1.41786035e-05
 1.41786035e-05
 6.18632566e-06
 6.18632566e-06
)
)
1
(
101
(
 1.88096749e-15
 1.88096749e-15
 1.88096749e-15
 1.88096749e-15
 1.88096749e-15
 1.88096749e-15
 1.88096749e-15
 1.88096749e-15
 1.88096749e-15
 1.88096749e-15
 1.88096749e-15
 1.88096749e-15
 1.88096749e-15
 1.88096749e-15
 1.88096749e-15
 1.88096749e-15
 1.88096749e-15
 1.88096749e-15
 1.88096749e-15
 1.88096749e-15
 1.88096749e-15
 1.88096749e-15
 1.88096749e-15
 1.88096749e-15
 1.88096749e-15
 1.88096749e-15
 1.88096749e-15
 1.88096749e-15
 1.88096749e-15
 1.88096749e-15
 1.88096749e-15
 1.88096749e-15
 1.88096749e-15
 1.88096749e-15
 1.88096749e-15
 1.88096749e-15
 1.88096749e-15
 1.88096749e-15
 1.88096749e-15
 1.88096749e-15
 1.88096749e-15
 1.88096749e-15
 1.88096749e-15
 1.88096749e-15
 3.06063991e-04
 2.62013074e-04
 2.62013074e-04
 2.62013074e-04
 2.62013074e-04
 2.62013074e-04
 2.62013074e-04
 3.97937505e-04
 3.97937505e-04
 3.97937505e-04
 3.97937505e-04
 3.97937505e-04
 3.97937505e-04
 3.97937505e-04
 3.97937505e-04
 3.97937505e-04
 3.97937505e-04
 3.97937505e-04
 3.97937505e-04
 3.97937505e-04
 3.97937505e-04
 3.97937505e-04
 3.97937505e-04
 2.92628386e-04
 2.92628386e-04
 2.92628386e-04
 2.92628386e-04
 2.92628386e-04
 2.92628386e-04
 2.92628386e-04
 2.92628386e-04
 2.92628386e-04
 2.92628386e-04
 2.92628386e-04
 2.92628386e-04
 1.02395866e-04
 7.15917735e-05
 7.15917735e-05
 7.15917735e-05
 7.15917735e-05
 7.15917735e-05
 7.15917735e-05
 5.36040216e-05
 5.36040216e-05
 5.36040216e-05
 5.36040216e-05
 5.36040216e-05
 5.36040216e-05
 5.36040216e-05
 2.88272975e-05
 2.88272975e-05
 2.88272975e-05
 2.88272975e-05
 2.88272975e-05
 1.41786035e-05
 4.53263221e-06
 4.53263221e-06
)
)
1
(
101
(
 3.12504699e-15
 3.12504699e-15
 3.12504699e-15
 3.12504699e-15
 3.12504699e-15
 3.12504699e-15
 3.12504699e-15
 3.12504699e-15
 3.12504699e-15
 3.12504699e-15
 3.12504699e-15
 3.12504699e-15
 3.12504699e-15
 3.12504699e-15
 3.12504699e-15
 3.12504699e-15
 3.12504699e-15
 3.12504699e-15
 3.12504699e-15
 3.12504699e-15
 3.12504699e-15
 3.12504699e-15
 3.12504699e-15
 3.12504699e-15
 3.12504699e-15
 3.12504699e-15
 3.12504699e-15
 3.12504699e-15
 3.12504699e-15
 3.12504699e-15
 3.12504699e-15
 3.12504699e-15
 3.12504699e-15
 3.12504699e-15
 3.12504699e-15
 3.12504699e-15
 3.12504699e-15
 3.12504699e-15
 3.12504699e-15
 3.12504699e-15
 3.12504699e-15
 3.12504699e-15
 3.12504699e-15
 3.12504699e-15
 3.06063991e-04
 3.06063991e-04
 3.06063991e-04
 2.62013074e-04
 2.62013074e-04
 2.62013074e-04
 2.62013074e-04
 2.62013074e-04
 2.62013074e-04
 3.97937505e-04
 3.97937505e-04
 3.97937505e-04
 3.97937505e-04
 3.97937505e-04
 3.97937505e-04
 3.97937505e-04
 3.97937505e-04
 3.97937505e-04
 3.97937505e-04
 3.97937505e-04
 3.97937505e-04
 3.97937505e-04
 3.97937505e-04
 3.97937505e-04
 2.92628386e-04
 2.92628386e-04
 2.92628386e-04
 2.92628386e-04
 2.92628386e-04
 2.92628386e-04
 2.92628386e-04
 2.92628386e-04
 2.92628386e-04
 2.92628386e-04
 2.92628386e-04
 2.92628386e-04
 1.02395866e-04
 7.15917735e-05
 7.15917735e-05
 7.15917735e-05
 7.15917735e-05
 7.15917735e-05
 7.15917735e-05
 7.15917735e-05
 5.36040216e-05
 5.36040216e-05
 5.36040216e-05
 5.36040216e-05
 5.36040216e-05
 5.36040216e-05
 3.01497277e-05
 2.88272975e-05
 2.88272975e-05
 2.88272975e-05
 1.24757504e-05
 1.24757504e-05
 4.53263221e-06
)
)
1
(
101
(
 3.05568603e-15
 3.05568603e-15
 3.05568603e-15
 3.05568603e-15
 3.05568603e-15
 3.05568603e-15
 3.05568603e-15
 3.05568603e-15
 3.05568603e-15
 3.05568603e-15
 3.05568603e-15
 3.05568603e-15
 3.05568603e-15
 3.05568603e-15
 3.05568603e-15
 3.05568603e-15
 3.05568603e-15
 3.05568603e-15
 3.05568603e-15
 3.05568603e-15
 3.05568603e-15
 3.05568603e-15
 3.05568603e-15
 3.05568603e-15
 3.05568603e-15
 3.05568603e-15
 3.05568603e-15
 3.05568603e-15
 3.05568603e-15
 3.05568603e-15
 3.05568603e-15
 3.05568603e-15
 3.05568603e-15
 3.05568603e-15
 3.05568603e-15
 3.05568603e-15
 3.05568603e-15
 3.05568603e-15
 3.05568603e-15
 3.05568603e-15
 3.05568603e-15
 3.05568603e-15
 8.42648627e-15
 3.06063991e-04
 3.06063991e-04
 3.06063991e-04
 3.06063991e-04
 3.06063991e-04
 2.62013074e-04
 2.62013074e-04
 2.62013074e-04
 2.62013074e-04
 2.62013074e-04
 2.62013074e-04
 3.97937505e-04
 3.97937505e-04
 3.97937505e-04
 3.97937505e-04
 3.97937505e-04
 3.97937505e-04
 3.97937505e-04
 3.97937505e-04
 3.97937505e-04
 3.97937505e-04
 3.97937505e-04
 3.97937505e-04
 3.97937505e-04
 3.97937505e-04
 3.97937505e-04
 3.97937505e-04
 2.92628386e-04
 2.92628386e-04
 2.92628386e-04
 2.92628386e-04
 2.92628386e-04
 2.92628386e-04
 2.92628386e-04
 2.92628386e-04
 2.92628386e-04
 2.92628386e-04
 2.92628386e-04
 1.02395866e-04
 1.02395866e-04
 7.15917735e-05
 7.15917735e-05
 7.15917735e-05
 7.15917735e-05
 7.15917735e-05
 7.15917735e-05
 5.36040216e-05
 5.36040216e-05
 5.36040216e-05
 5.36040216e-05
 5.36040216e-05
 5.36040216e-05
 3.01497277e-05
 3.01497277e-05
 2.10942885e-05
 2.10942885e-05
 1.24757504e-05
 1.24757504e-05
)
)
1
(
101
(
 6.41873600e-15
 6.41873600e-15
 6.41873600e-15
 6.41873600e-15
 6.41873600e-15
 6.41873600e-15
 6.41873600e-15
 6.41873600e-15
 6.41873600e-15
 6.41873600e-15
 6.41873600e-15
 6.41873600e-15
 6.41873600e-15
 6.41873600e-15
 6.41873600e-15
 6.41873600e-15
 6.41873600e-15
 6.41873600e-15
 6.41873600e-15
 6.41873600e-15
 6.41873600e-15
 6.41873600e-15
 6.41873600e-15
 6.41873600e-15
 6.41873600e-15
 6.41873600e-15
 6.41873600e-15
 6.41873600e-15
 6.41873600e-15
 6.41873600e-15
 6.41873600e-15
 6.41873600e-15
 6.41873600e-15
 8.42648627e-15
 8.42648627e-15
 8.42648627e-15
 8.42648627e-15
 8.42648627e-15
 8.42648627e-15
 8.42648627e-15
 8.42648627e-15
 8.42648627e-15
 8.42648627e-15
 3.06063991e-04
 3.06063991e-04
 3.06063991e-04
 3.06063991e-04
 3.06063991e-04
 3.06063991e-04
 2.62013074e-04
 2.62013074e-04
 2.62013074e-04
 2.62013074e-04
 2.62013074e-04
 2.62013074e-04
 2.62013074e-04
 3.97937505e-04
 3.97937505e-04
 3.97937505e-04
 3.97937505e-04
 3.97937505e-04
 3.97937505e-04
 3.97937505e-04
 3.97937505e-04
 3.97937505e-04
 3.97937505e-04
 3.97937505e-04
 3.97937505e-04
 3.97937505e-04
 3.97937505e-04
 3.97937505e-04
 2.92628386e-04
 2.92628386e-04
 2.92628386e-04
 2.92628386e-04
 2.92628386e-04
 2.92628386e-04
 2.92628386e-04
 2.92628386e-04
 2.92628386e-04
 2.92628386e-04
 2.92628386e-04
 1.02395866e-04
 1.02395866e-04
 7.15917735e-05
 7.15917735e-05
 7.15917735e-05
 7.15917735e-05
 7.15917735e-05
 7.15917735e-05
 7.15917735e-05
 5.36040216e-05
 5.36040216e-05
 5.36040216e-05
 5.36040216e-05
 5.36040216e-05
 3.01497277e-05
 3.01497277e-05
 2.10942885e-05
 2.10942885e-05
 1.24757504e-05
)
)
1
(
101
(
 5.54078884e-15
 5.54078884e-15
 5.54078884e-15
 5.54078884e-15
 5.54078884e-15
 5.54078884e-15
 5.54078884e-15
 5.54078884e-15
 5.54078884e-15
 5.54078884e-15
 5.54078884e-15
 5.54078884e-15
 5.54078884e-15
 5.54078884e-15
 5.54078884e-15
 5.54078884e-15
 5.54078884e-15
 5.54078884e-15
 5.54078884e-15
 5.54078884e-15
 5.54078884e-15
 5.54078884e-15
 5.54078884e-15
 5.54078884e-15
 5.54078884e-15
 5.54078884e-15
 8.42648627e-15
 8.42648627e-15
 8.42648627e-15
 8.42648627e-15
 8.42648627e-15
 8.42648627e-15
 8.42648627e-15
 8.42648627e-15
 8.42648627e-15
 8.42648627e-15
 8.42648627e-15
 8.42648627e-15
 8.42648627e-15
 8.42648627e-15
 8.42648627e-15
 8.42648627e-15
 8.42648627e-15
 3.06063991e-04
 3.06063991e-04
 3.06063991e-04
 3.06063991e-04
 3.06063991e-04
 3.06063991e-04
 3.06063991e-04
 2.62013074e-04
 2.62013074e-04
 2.62013074e-04
 2.62013074e-04
 2.62013074e-04
 2.62013074e-04
 2.62013074e-04
 3.97937505e-04
 3.97937505e-04
 3.97937505e-04
 3.97937505e-04
 3.97937505e-04
 3.97937505e-04
 3.97937505e-04
 3.97937505e-04
 3.97937505e-04
 3.97937505e-04
 3.97937505e-04
 3.97937505e-04
 3.97937505e-04
 3.97937505e-04
 3.97937505e-04
 2.92628386e-04
 2.92628386e-04
 2.92628386e-04
 2.92628386e-04
 2.92628386e-04
 2.92628386e-04
 2.92628386e-04
 2.92628386e-04
 2.92628386e-04
 2.92628386e-04
 2.92628386e-04
 1.02395866e-04
 1.02395866e-04
 1.02395866e-04
 7.15917735e-05
 7.15917735e-05
 7.15917735e-05
 7.15917735e-05
 7.15917735e-05
 7.15917735e-05
 6.05132103e-05
 5.36040216e-05
 5.36040216e-05
 5.36040216e-05
 2.87141701e-05
 2.87141701e-05
 2.87141701e-05
 2.10942885e-05
 2.10942885e-05
)
)
1
(
101
(
 6.34143415e-15
 6.34143415e-15
 6.34143415e-15
 6.34143415e-15
 6.34143415e-15
 6.34143415e-15
 6.34143415e-15
 6.34143415e-15
 6.34143415e-15
 6.34143415e-15
 6.34143415e-15
 6.34143415e-15
 6.34143415e-15
 6.34143415e-15
 6.34143415e-15
 6.34143415e-15
 6.34143415e-15
 6.34143415e-15
 6.34143415e-15
 8.42648627e-15
 8.42648627e-15
 8.42648627e-15
 8.42648627e-15
 8.42648627e-15
 8.42648627e-15
 8.42648627e-15
 8.42648627e-15
 8.42648627e-15
 8.42648627e-15
 8.42648627e-15
 8.42648627e-15
 8.42648627e-15
 8.42648627e-15
 8.42648627e-15
 8.42648627e-15
 8.42648627e-15
 8.42648627e-15
 8.42648627e-15
 8.42648627e-15
 8.42648627e-15
 8.42648627e-15
 8.42648627e-15
 3.06063991e-04
 3.06063991e-04
 3.06063991e-04
 3.06063991e-04
 3.06063991e-04
 3.06063991e-04
 3.06063991e-04
 3.06063991e-04
 3.06063991e-04
 2.62013074e-04
 2.62013074e-04
 2.62013074e-04
 2.62013074e-04
 2.62013074e-04
 2.62013074e-04
 2.62013074e-04
 2.62013074e-04
 3.97937505e-04
 3.97937505e-04
 3.97937505e-04
 3.97937505e-04
 3.97937505e-04
 3.97937505e-04
 3.97937505e-04
 3.97937505e-04
 3.97937505e-04
 3.97937505e-04
 3.97937505e-04
 3.97937505e-04
 3.97937505e-04
 3.97937505e-04
 2.92628386e-04
 2.92628386e-04
 2.92628386e-04
 2.92628386e-04
 2.92628386e-04
 2.92628386e-04
 2.92628386e-04
 2.92628386e-04
 2.92628386e-04
 2.92628386e-04
 2.92628386e-04
 1.02395866e-04
 1.02395866e-04
 1.02395866e-04
 7.15917735e-05
 7.15917735e-05
 7.15917735e-05
 7.15917735e-05
 7.15917735e-05
 7.15917735e-05
 6.05132103e-05
 6.05132103e-05
 3.28261310e-05
 3.28261310e-05
 2.87141701e-05
 2.87141701e-05
 2.87141701e-05
 2.87141701e-05
)
)
1
(
101
(
 1.40446996e-14
 1.40446996e-14
 1.40446996e-14
 1.40446996e-14
 1.40446996e-14
 1.40446996e-14
 1.40446996e-14
 1.40446996e-14
 1.40446996e-14
 1.40446996e-14
 1.40446996e-14
 1.40446996e-14
 1.40446996e-14
 1.40446996e-14
 8.42648627e-15
 8.42648627e-15
 8.42648627e-15
 8.42648627e-15
 8.42648627e-15
 8.42648627e-15
 8.42648627e-15
 8.42648627e-15
 8.42648627e-15
 8.42648627e-15
 8.42648627e-15
 8.42648627e-15
 8.42648627e-15
 8.42648627e-15
 8.42648627e-15
 8.42648627e-15
 8.42648627e-15
 8.42648627e-15
 8.42648627e-15
 8.42648627e-15
 8.42648627e-15
 8.42648627e-15
 8.42648627e-15
 8.42648627e-15
 8.42648627e-15
 8.42648627e-15
 8.42648627e-15
 8.42648627e-15
 3.06063991e-04
 3.06063991e-04
 3.06063991e-04
 3.06063991e-04
 3.06063991e-04
 3.06063991e-04
 3.06063991e-04
 3.06063991e-04
 3.06063991e-04
 3.06063991e-04
 2.62013074e-04
 2.62013074e-04
 2.62013074e-04
 2.62013074e-04
 2.62013074e-04
 2.62013074e-04
 2.62013074e-04
 2.62013074e-04
 3.97937505e-04
 3.97937505e-04
 3.97937505e-04
 3.97937505e-04
 3.97937505e-04
 3.97937505e-04
 3.97937505e-04
 3.97937505e-04
 3.97937505e-04
 3.97937505e-04
 3.97937505e-04
 3.97937505e-04
 3.97937505e-04
 3.97937505e-04
 3.97937505e-04
 2.92628386e-04
 2.92628386e-04
 2.92628386e-04
 2.92628386e-04
 2.92628386e-04
 2.92628386e-04
 2.92628386e-04
 2.92628386e-04
 2.92628386e-04
 2.92628386e-04
 1.02395866e-04
 1.02395866e-04
 1.02395866e-04
 1.02395866e-04
 7.15917735e-05
 7.15917735e-05
 7.15917735e-05
 7.15917735e-05
 7.15917735e-05
 6.05132103e-05
 6.05132103e-05
 3.28261310e-05
 3.28261310e-05
 2.87141701e-05
 2.87141701e-05
 2.87141701e-05
)
)
1
(
101
(
 1.02483394e-14
 1.02483394e-14
 1.02483394e-14
 1.02483394e-14
 1.02483394e-14
 1.02483394e-14
 1.02483394e-14
 1.02483394e-14
 1.02483394e-14
 8.42648627e-15
 8.42648627e-15
 8.42648627e-15
 8.42648627e-15
 8.42648627e-15
 8.42648627e-15
 8.42648627e-15
 8.42648627e-15
 8.42648627e-15
 8.42648627e-15
 8.42648627e-15
 8.42648627e-15
 8.42648627e-15
 8.42648627e-15
 8.42648627e-15
 8.42648627e-15
 8.42648627e-15
 8.42648627e-15
 8.42648627e-15
 8.42648627e-15
 8.42648627e-15
 8.42648627e-15
 8.42648627e-15
 8.42648627e-15
 8.42648627e-15
 8.42648627e-15
 8.42648627e-15
 8.42648627e-15
 8.42648627e-15
 8.42648627e-15
 8.42648627e-15
 8.42648627e-15
 8.42648627e-15
 3.06063991e-04
 3.06063991e-04
 3.06063991e-04
 3.06063991e-04
 3.06063991e-04
 3.06063991e-04
 3.06063991e-04
 3.06063991e-04
 3.06063991e-04
 3.06063991e-04
 3.06063991e-04
 3.06063991e-04
 2.62013074e-04
 2.62013074e-04
 2.62013074e-04
 2.62013074e-04
 2.62013074e-04
 2.62013074e-04
 2.62013074e-04
 2.62013074e-04
 3.97937505e-04
 3.97937505e-04
 3.97937505e-04
 3.97937505e-04
 3.97937505e-04
 3.97937505e-04
 3.97937505e-04
 3.97937505e-04
 3.97937505e-04
 3.97937505e-04
 3.97937505e-04
 3.97937505e-04
 3.97937505e-04
 3.97937505e-04
 2.92628386e-04
 2.92628386e-04
 2.92628386e-04
 2.92628386e-04
 2.92628386e-04
 2.92628386e-04
 2.92628386e-04
 2.92628386e-04
 2.92628386e-04
 2.92628386e-04
 1.02395866e-04
 1.02395866e-04
 1.02395866e-04
 1.02395866e-04
 7.49661440e-05
 7.15917735e-05
 7.15917735e-05
 7.15917735e-05
 7.15917735e-05
 6.05132103e-05
 6.05132103e-05
 3.28261310e-05
 3.28261310e-05
 2.87141701e-05
 2.87141701e-05
)
)
1
(
101
(
 1.21346658e-14
 1.21346658e-14
 1.21346658e-14
 1.21346658e-14
 1.21346658e-14
 1.21346658e-14
 8.42648627e-15
 8.42648627e-15
 8.42648627e-15
 8.42648627e-15
 8.42648627e-15
 8.42648627e-15
 8.42648627e-15
 8.42648627e-15
 8.42648627e-15
 8.42648627e-15
 8.42648627e-15
 8.42648627e-15
 8.42648627e-15
 8.42648627e-15
 8.42648627e-15
 8.42648627e-15
 8.42648627e-15
 8.42648627e-15
 8.42648627e-15
 8.42648627e-15
 8.42648627e-15
 8.42648627e-15
 8.42648627e-15
 8.42648627e-15
 8.42648627e-15
 8.42648627e-15
 8.42648627e-15
 8.42648627e-15
 8.42648627e-15
 8.42648627e-15
 8.42648627e-15
 8.42648627e-15
 8.42648627e-15
 8.42648627e-15
 8.42648627e-15
 8.42648627e-15
 3.06063991e-04
 3.06063991e-04
 3.06063991e-04
 3.06063991e-04
 3.06063991e-04
 3.06063991e-04
 3.06063991e-04
 3.06063991e-04
 3.06063991e-04
 3.06063991e-04
 3.06063991e-04
 3.06063991e-04
 3.06063991e-04
 2.62013074e-04
 2.62013074e-04
 2.62013074e-04
 2.62013074e-04
 2.62013074e-04
 2.62013074e-04
 2.62013074e-04
 2.62013074e-04
 3.97937505e-04
 3.97937505e-04
 3.97937505e-04
 3.97937505e-04
 3.97937505e-04
 3.97937505e-04
 3.97937505e-04
 3.97937505e-04
 3.97937505e-04
 3.97937505e-04
 3.97937505e-04
 3.97937505e-04
 3.97937505e-04
 3.97937505e-04
 2.92628386e-04
 2.92628386e-04
 2.92628386e-04
 2.92628386e-04
 2.92628386e-04
 2.92628386e-04
 2.92628386e-04
 2.92628386e-04
 2.92628386e-04
 2.92628386e-04
 1.02395866e-04
 1.02395866e-04
 1.02395866e-04
 1.02395866e-04
 7.49661440e-05
 7.49661440e-05
 4.95963878e-05
 4.95963878e-05
 4.95963878e-05
 6.05132103e-05
 6.05132103e-05
 3.28261310e-05
 3.28261310e-05
 2.87141701e-05
)
)
1
(
101
(
 1.53467911e-14
 1.53467911e-14
 1.53467911e-14
 8.42648627e-15
 8.42648627e-15
 8.42648627e-15
 8.42648627e-15
 8.42648627e-15
 8.42648627e-15
 8.42648627e-15
 8.42648627e-15
 8.42648627e-15
 8.42648627e-15
 8.42648627e-15
 8.42648627e-15
 8.42648627e-15
 8.42648627e-15
 8.42648627e-15
 8.42648627e-15
 8.42648627e-15
 8.42648627e-15
 8.42648627e-15
 8.42648627e-15
 8.42648627e-15
 8.42648627e-15
 8.42648627e-15
 8.42648627e-15
 8.42648627e-15
 8.42648627e-15
 8.42648627e-15
 8.42648627e-15
 8.42648627e-15
 8.42648627e-15
 8.42648627e-15
 8.42648627e-15
 8.42648627e-15
 8.42648627e-15
 8.42648627e-15
 8.42648627e-15
 8.42648627e-15
 8.42648627e-15
 2.85165895e-04
 3.06063991e-04
 3.06063991e-04
 3.06063991e-04
 3.06063991e-04
 3.06063991e-04
 3.06063991e-04
 3.06063991e-04
 3.06063991e-04
 3.06063991e-04
 3.06063991e-04
 3.06063991e-04
 3.06063991e-04
 3.06063991e-04
 3.06063991e-04
 2.62013074e-04
 2.62013074e-04
 2.62013074e-04
 2.62013074e-04
 2.62013074e-04
 2.62013074e-04
 2.62013074e-04
 2.62013074e-04
 2.62013074e-04
 3.97937505e-04
 3.97937505e-04
 3.97937505e-04
 3.97937505e-04
 3.97937505e-04
 3.97937505e-04
 3.97937505e-04
 3.97937505e-04
 3.97937505e-04
 3.97937505e-04
 3.97937505e-04
 3.97937505e-04
 3.97937505e-04
 2.92628386e-04
 2.92628386e-04
 2.92628386e-04
 2.92628386e-04
 2.92628386e-04
 2.92628386e-04
 2.92628386e-04
 2.92628386e-04
 2.92628386e-04
 2.92628386e-04
 1.02395866e-04
 1.02395866e-04
 1.02395866e-04
 1.02395866e-04
 7.49661440e-05
 7.49661440e-05
 4.95963878e-05
 4.95963878e-05
 4.95963878e-05
 4.95963878e-05
 6.05132103e-05
 3.28261310e-05
 3.28261310e-05
)
)
1
(
101
(
 2.70158341e-15
 2.70158341e-15
 8.42648627e-15
 8.42648627e-15
 8.42648627e-15
 8.42648627e-15
 8.42648627e-15
 8.42648627e-15
 8.42648627e-15
 8.42648627e-15
 8.42648627e-15
 8.42648627e-15
 8.42648627e-15
 8.42648627e-15
 8.42648627e-15
 8.42648627e-15
 8.42648627e-15
 8.42648627e-15
 8.42648627e-15
 8.42648627e-15
 8.42648627e-15
 8.42648627e-15
 8.42648627e-15
 8.42648627e-15
 8.42648627e-15
 8.42648627e-15
 8.42648627e-15
 8.42648627e-15
 8.42648627e-15
 8.42648627e-15
 8.42648627e-15
 8.42648627e-15
 8.42648627e-15
 8.42648627e-15
 8.42648627e-15
 8.42648627e-15
 8.42648627e-15
 8.42648627e-15
 8.42648627e-15
 8.42648627e-15
 8.42648627e-15
 2.85165895e-04
 2.85165895e-04
 3.06063991e-04
 3.06063991e-04
 3.06063991e-04
 3.06063991e-04
 3.06063991e-04
 3.06063991e-04
 3.06063991e-04
 3.06063991e-04
 3.06063991e-04
 3.06063991e-04
 3.06063991e-04
 3.06063991e-04
 3.06063991e-04
 3.06063991e-04
 2.62013074e-04
 2.62013074e-04
 2.62013074e-04
 2.62013074e-04
 2.62013074e-04
 2.62013074e-04
 2.62013074e-04
 2.62013074e-04
 2.62013074e-04
 3.97937505e-04
 3.97937505e-04
 3.97937505e-04
 3.97937505e-04
 3.97937505e-04
 3.97937505e-04
 3.97937505e-04
 3.97937505e-04
 3.97937505e-04
 3.97937505e-04
 3.97937505e-04
 3.97937505e-04
 3.97937505e-04
 3.97937505e-04
 2.92628386e-04
 2.92628386e-04
 2.92628386e-04
 2.92628386e-04
 2.92628386e-04
 2.92628386e-04
 2.92628386e-04
 2.92628386e-04
 9.52427195e-05
 1.02395866e-04
 1.02395866e-04
 1.02395866e-04
 2.94290499e-05
 2.94290499e-05
 2.94290499e-05
 4.95963878e-05
 4.95963878e-05
 4.95963878e-05
 4.95963878e-05
 4.95963878e-05
 3.28261310e-05
)
)
1
(
101
(
 8.53719599e-24
 8.42648627e-15
 8.42648627e-15
 8.42648627e-15
 8.42648627e-15
 8.42648627e-15
 8.42648627e-15
 8.42648627e-15
 8.42648627e-15
 8.42648627e-15
 8.42648627e-15
 8.42648627e-15
 8.42648627e-15
 8.42648627e-15
 8.42648627e-15
 8.42648627e-15
 8.42648627e-15
 8.42648627e-15
 8.42648627e-15
 8.42648627e-15
 8.42648627e-15
 8.42648627e-15
 8.42648627e-15
 8.42648627e-15
 8.42648627e-15
 8.42648627e-15
 8.42648627e-15
 8.42648627e-15
 8.42648627e-15
 8.42648627e-15
 8.42648627e-15
 8.42648627e-15
 8.42648627e-15
 8.42648627e-15
 8.42648627e-15
 8.42648627e-15
 8.42648627e-15
 8.42648627e-15
 8.42648627e-15
 8.42648627e-15
 2.85165895e-04
 2.85165895e-04
 2.85165895e-04
 2.85165895e-04
 3.06063991e-04
 3.06063991e-04
 3.06063991e-04
 3.06063991e-04
 3.06063991e-04
 3.06063991e-04
 3.06063991e-04
 3.06063991e-04
 3.06063991e-04
 3.06063991e-04
 3.06063991e-04
 3.06063991e-04
 3.06063991e-04
 3.06063991e-04
 2.62013074e-04
 2.62013074e-04
 2.62013074e-04
 2.62013074e-04
 2.62013074e-04
 2.62013074e-04
 2.62013074e-04
 2.62013074e-04
 2.62013074e-04
 2.62013074e-04
 3.97937505e-04
 3.97937505e-04
 3.97937505e-04
 3.97937505e-04
 3.97937505e-04
 3.97937505e-04
 3.97937505e-04
 3.97937505e-04
 3.97937505e-04
 3.97937505e-04
 3.97937505e-04
 3.97937505e-04
 3.97937505e-04
 1.74824273e-04
 2.92628386e-04
 2.92628386e-04
 2.92628386e-04
 2.92628386e-04
 2.92628386e-04
 2.92628386e-04
 2.92628386e-04
 9.52427195e-05
 9.52427195e-05
 6.42118421e-05
 6.42118421e-05
 2.94290499e-05
 2.94290499e-05
 2.94290499e-05
 2.94290499e-05
 4.95963878e-05
 4.95963878e-05
 4.95963878e-05
 4.95963878e-05
)
)
1
(
101
(
 8.53719599e-24
 1.84883737e-14
 1.84883737e-14
 1.84883737e-14
 1.84883737e-14
 1.84883737e-14
 1.84883737e-14
 1.84883737e-14
 1.84883737e-14
 1.84883737e-14
 1.84883737e-14
 1.84883737e-14
 1.84883737e-14
 1.84883737e-14
 1.84883737e-14
 1.84883737e-14
 1.84883737e-14
 1.84883737e-14
 1.84883737e-14
 1.84883737e-14
 1.84883737e-14
 1.84883737e-14
 1.84883737e-14
 1.84883737e-14
 1.84883737e-14
 1.84883737e-14
 1.84883737e-14
 1.84883737e-14
 1.84883737e-14
 1.84883737e-14
 1.84883737e-14
 1.84883737e-14
 1.84883737e-14
 1.84883737e-14
 1.84883737e-14
 1.84883737e-14
 1.84883737e-14
 1.84883737e-14
 1.84883737e-14
 1.84883737e-14
 2.85165895e-04
 2.85165895e-04
 2.85165895e-04
 2.85165895e-04
 2.85165895e-04
 3.06063991e-04
 3.06063991e-04
 3.06063991e-04
 3.06063991e-04
 3.06063991e-04
 3.06063991e-04
 3.06063991e-04
 3.06063991e-04
 3.06063991e-04
 3.06063991e-04
 3.06063991e-04
 3.06063991e-04
 3.06063991e-04
 3.06063991e-04
 2.62013074e-04
 2.62013074e-04
 2.62013074e-04
 2.62013074e-04
 2.62013074e-04
 2.62013074e-04
 2.62013074e-04
 2.62013074e-04
 2.62013074e-04
 2.62013074e-04
 3.97937505e-04
 3.97937505e-04
 3.97937505e-04
 3.97937505e-04
 3.97937505e-04
 3.97937505e-04
 3.97937505e-04
 3.97937505e-04
 3.97937505e-04
 3.97937505e-04
 3.97937505e-04
 3.97937505e-04
 3.97937505e-04
 1.74824273e-04
 1.74824273e-04
 2.92628386e-04
 2.92628386e-04
 2.92628386e-04
 2.92628386e-04
 2.92628386e-04
 9.52427195e-05
 9.52427195e-05
 9.52427195e-05
 6.42118421e-05
 6.42118421e-05
 2.94290499e-05
 2.94290499e-05
 2.94290499e-05
 2.94290499e-05
 2.94290499e-05
 4.95963878e-05
 4.95963878e-05
)
)
1
(
101
(
 2.38458975e-14
 2.38458975e-14
 2.38458975e-14
 2.38458975e-14
 2.38458975e-14
 2.38458975e-14
 2.38458975e-14
 2.38458975e-14
 2.38458975e-14
 2.38458975e-14
 2.38458975e-14
 2.38458975e-14
 2.38458975e-14
 2.38458975e-14
 2.38458975e-14
 2.38458975e-14
 2.38458975e-14
 2.38458975e-14
 2.38458975e-14
 2.38458975e-14
 2.38458975e-14
 2.38458975e-14
 2.38458975e-14
 2.38458975e-14
 2.38458975e-14
 2.38458975e-14
 2.38458975e-14
 2.38458975e-14
 2.38458975e-14
 2.38458975e-14
 2.38458975e-14
 2.38458975e-14
 2.38458975e-14
 2.38458975e-14
 2.38458975e-14
 2.38458975e-14
 2.38458975e-14
 2.38458975e-14
 2.38458975e-14
 2.38458975e-14
 2.85165895e-04
 2.85165895e-04
 2.85165895e-04
 2.85165895e-04
 2.85165895e-04
 2.85165895e-04
 3.06063991e-04
 3.06063991e-04
 3.06063991e-04
 3.06063991e-04
 3.06063991e-04
 3.06063991e-04
 3.06063991e-04
 3.06063991e-04
 3.06063991e-04
 3.06063991e-04
 3.06063991e-04
 3.06063991e-04
 3.06063991e-04
 3.06063991e-04
 3.06063991e-04
 2.62013074e-04
 2.62013074e-04
 2.62013074e-04
 2.62013074e-04
 2.62013074e-04
 2.62013074e-04
 2.62013074e-04
 2.62013074e-04
 2.62013074e-04
 2.62013074e-04
 3.97937505e-04
 3.97937505e-04
 3.97937505e-04
 3.97937505e-04
 3.97937505e-04
 3.97937505e-04
 3.97937505e-04
 3.97937505e-04
 3.97937505e-04
 3.97937505e-04
 3.97937505e-04
 3.97937505e-04
 1.74824273e-04
 1.74824273e-04
 1.74824273e-04
 2.92628386e-04
 2.92628386e-04
 2.92628386e-04
 2.92628386e-04
 9.52427195e-05
 9.52427195e-05
 9.52427195e-05
 6.42118421e-05
 6.42118421e-05
 2.94290499e-05
 2.94290499e-05
 2.94290499e-05
 2.94290499e-05
 2.94290499e-05
 2.94290499e-05
)
)
1
(
101
(
 2.84246296e-14
 2.84246296e-14
 2.84246296e-14
 2.84246296e-14
 2.84246296e-14
 2.84246296e-14
 2.84246296e-14
 2.84246296e-14
 2.84246296e-14
 2.84246296e-14
 2.84246296e-14
 2.84246296e-14
 2.84246296e-14
 2.84246296e-14
 2.84246296e-14
 2.84246296e-14
 2.84246296e-14
 2.84246296e-14
 2.84246296e-14
 2.84246296e-14
 2.84246296e-14
 2.84246296e-14
 2.84246296e-14
 2.84246296e-14
 2.84246296e-14
 2.84246296e-14
 2.84246296e-14
 2.84246296e-14
 2.84246296e-14
 2.84246296e-14
 2.84246296e-14
 2.84246296e-14
 2.84246296e-14
 2.84246296e-14
 2.84246296e-14
 2.84246296e-14
 2.84246296e-14
 2.84246296e-14
 2.84246296e-14
 2.85165895e-04
 2.85165895e-04
 2.85165895e-04
 2.85165895e-04
 2.85165895e-04
 2.85165895e-04
 2.85165895e-04
 2.85165895e-04
 2.85165895e-04
 3.06063991e-04
 3.06063991e-04
 3.06063991e-04
 3.06063991e-04
 3.06063991e-04
 3.06063991e-04
 3.06063991e-04
 3.06063991e-04
 3.06063991e-04
 3.06063991e-04
 3.06063991e-04
 3.06063991e-04
 3.06063991e-04
 3.06063991e-04
 2.62013074e-04
 2.62013074e-04
 2.62013074e-04
 2.62013074e-04
 2.62013074e-04
 2.62013074e-04
 2.62013074e-04
 2.62013074e-04
 2.62013074e-04
 2.62013074e-04
 3.97937505e-04
 3.97937505e-04
 3.97937505e-04
 3.97937505e-04
 3.97937505e-04
 3.97937505e-04
 3.97937505e-04
 3.97937505e-04
 3.97937505e-04
 3.97937505e-04
 3.97937505e-04
 3.97937505e-04
 1.74824273e-04
 1.74824273e-04
 1.74824273e-04
 1.74824273e-04
 1.22544465e-04
 1.22544465e-04
 1.22544465e-04
 9.52427195e-05
 9.52427195e-05
 9.52427195e-05
 6.42118421e-05
 6.42118421e-05
 2.94290499e-05
 2.94290499e-05
 2.94290499e-05