/*--------------------------------*- C++ -*----------------------------------*\
| =========                 |                                                 |
| \\      /  F ield        | OpenFOAM: The Open Source CFD Toolbox           |
|  \\    /   O peration    | Version:  7                                     |
|   \\  /    A nd          | Web:      http://www.OpenFOAM.com               |
|    \\/     M anipulation |                                                 |
\*---------------------------------------------------------------------------*/

FoamFile
{
    version     2.0;
    format      ascii;
    class       dictionary;
    object      Y_C2H3_table;
}

Y_C2H3_table
2
(
101
(
1
(
101
(
 2.24034909e-24
 2.24034909e-24
 2.24034909e-24
 2.24034909e-24
 2.24034909e-24
 2.24034909e-24
 2.24034909e-24
 2.24034909e-24
 2.24034909e-24
 2.24034909e-24
 2.24034909e-24
 2.24034909e-24
 2.24034909e-24
 2.24034909e-24
 2.24034909e-24
 2.24034909e-24
 2.24034909e-24
 2.24034909e-24
 2.24034909e-24
 2.24034909e-24
 2.24034909e-24
 2.24034909e-24
 2.24034909e-24
 2.24034909e-24
 2.24034909e-24
 2.24034909e-24
 2.24034909e-24
 2.24034909e-24
 2.24034909e-24
 2.24034909e-24
 2.24034909e-24
 2.24034909e-24
 2.24034909e-24
 2.24034909e-24
 2.24034909e-24
 2.24034909e-24
 2.24034909e-24
 2.24034909e-24
 2.24034909e-24
 2.24034909e-24
 2.24034909e-24
 2.24034909e-24
 2.24034909e-24
 2.24034909e-24
 2.24034909e-24
 1.46382629e-10
 1.46382629e-10
 5.78960952e-11
 5.78960952e-11
 5.78960952e-11
 5.78960952e-11
 5.78960952e-11
 5.78960952e-11
 5.78960952e-11
 5.78960952e-11
 5.78960952e-11
 5.78960952e-11
 5.78960952e-11
 5.78960952e-11
 5.78960952e-11
 5.78960952e-11
 5.78960952e-11
 5.78960952e-11
 2.48159552e-11
 2.48159552e-11
 2.48159552e-11
 2.48159552e-11
 2.48159552e-11
 2.48159552e-11
 2.48159552e-11
 2.48159552e-11
 2.48159552e-11
 2.48159552e-11
 2.48159552e-11
 2.48159552e-11
 8.17797460e-12
 8.17797460e-12
 8.17797460e-12
 8.17797460e-12
 8.17797460e-12
 8.17797460e-12
 8.17797460e-12
 4.28448885e-12
 4.28448885e-12
 4.28448885e-12
 4.28448885e-12
 4.28448885e-12
 4.28448885e-12
 1.75976664e-12
 1.75976664e-12
 1.75976664e-12
 1.75976664e-12
 1.75976664e-12
 1.75976664e-12
 1.75976664e-12
 1.96492657e-13
 1.96492657e-13
 1.96492657e-13
 1.96492657e-13
 1.96492657e-13
 2.74049702e-15
)
)
1
(
101
(
 7.10918196e-22
 7.10918196e-22
 7.10918196e-22
 7.10918196e-22
 7.10918196e-22
 7.10918196e-22
 7.10918196e-22
 7.10918196e-22
 7.10918196e-22
 7.10918196e-22
 7.10918196e-22
 7.10918196e-22
 7.10918196e-22
 7.10918196e-22
 7.10918196e-22
 7.10918196e-22
 7.10918196e-22
 7.10918196e-22
 7.10918196e-22
 7.10918196e-22
 7.10918196e-22
 7.10918196e-22
 7.10918196e-22
 7.10918196e-22
 7.10918196e-22
 7.10918196e-22
 7.10918196e-22
 7.10918196e-22
 7.10918196e-22
 7.10918196e-22
 7.10918196e-22
 7.10918196e-22
 7.10918196e-22
 7.10918196e-22
 7.10918196e-22
 7.10918196e-22
 7.10918196e-22
 7.10918196e-22
 7.10918196e-22
 7.10918196e-22
 7.10918196e-22
 7.10918196e-22
 7.10918196e-22
 7.10918196e-22
 7.10918196e-22
 1.46382629e-10
 1.46382629e-10
 1.46382629e-10
 5.78960952e-11
 5.78960952e-11
 5.78960952e-11
 5.78960952e-11
 5.78960952e-11
 5.78960952e-11
 5.78960952e-11
 5.78960952e-11
 5.78960952e-11
 5.78960952e-11
 5.78960952e-11
 5.78960952e-11
 5.78960952e-11
 5.78960952e-11
 5.78960952e-11
 5.78960952e-11
 5.78960952e-11
 2.48159552e-11
 2.48159552e-11
 2.48159552e-11
 2.48159552e-11
 2.48159552e-11
 2.48159552e-11
 2.48159552e-11
 2.48159552e-11
 2.48159552e-11
 2.48159552e-11
 2.48159552e-11
 2.48159552e-11
 8.17797460e-12
 8.17797460e-12
 8.17797460e-12
 8.17797460e-12
 8.17797460e-12
 8.17797460e-12
 4.28448885e-12
 4.28448885e-12
 4.28448885e-12
 4.28448885e-12
 4.28448885e-12
 4.28448885e-12
 4.28448885e-12
 1.75976664e-12
 1.75976664e-12
 1.75976664e-12
 1.75976664e-12
 1.75976664e-12
 1.75976664e-12
 7.01434974e-13
 1.96492657e-13
 1.96492657e-13
 1.96492657e-13
 8.01773379e-14
)
)
1
(
101
(
 6.08867086e-21
 6.08867086e-21
 6.08867086e-21
 6.08867086e-21
 6.08867086e-21
 6.08867086e-21
 6.08867086e-21
 6.08867086e-21
 6.08867086e-21
 6.08867086e-21
 6.08867086e-21
 6.08867086e-21
 6.08867086e-21
 6.08867086e-21
 6.08867086e-21
 6.08867086e-21
 6.08867086e-21
 6.08867086e-21
 6.08867086e-21
 6.08867086e-21
 6.08867086e-21
 6.08867086e-21
 6.08867086e-21
 6.08867086e-21
 6.08867086e-21
 6.08867086e-21
 6.08867086e-21
 6.08867086e-21
 6.08867086e-21
 6.08867086e-21
 6.08867086e-21
 6.08867086e-21
 6.08867086e-21
 6.08867086e-21
 6.08867086e-21
 6.08867086e-21
 6.08867086e-21
 6.08867086e-21
 6.08867086e-21
 6.08867086e-21
 6.08867086e-21
 6.08867086e-21
 6.08867086e-21
 6.08867086e-21
 1.46382629e-10
 1.46382629e-10
 1.46382629e-10
 1.46382629e-10
 1.46382629e-10
 1.46382629e-10
 5.78960952e-11
 5.78960952e-11
 5.78960952e-11
 5.78960952e-11
 5.78960952e-11
 5.78960952e-11
 5.78960952e-11
 5.78960952e-11
 5.78960952e-11
 5.78960952e-11
 5.78960952e-11
 5.78960952e-11
 5.78960952e-11
 5.78960952e-11
 5.78960952e-11
 5.78960952e-11
 2.48159552e-11
 2.48159552e-11
 2.48159552e-11
 2.48159552e-11
 2.48159552e-11
 2.48159552e-11
 2.48159552e-11
 2.48159552e-11
 2.48159552e-11
 2.48159552e-11
 2.48159552e-11
 2.48159552e-11
 8.17797460e-12
 8.17797460e-12
 8.17797460e-12
 8.17797460e-12
 8.17797460e-12
 8.17797460e-12
 8.17797460e-12
 4.28448885e-12
 4.28448885e-12
 4.28448885e-12
 4.28448885e-12
 4.28448885e-12
 4.28448885e-12
 1.75976664e-12
 1.75976664e-12
 1.75976664e-12
 1.75976664e-12
 1.75976664e-12
 1.75976664e-12
 7.01434974e-13
 7.01434974e-13
 3.08486497e-13
 3.08486497e-13
)
)
1
(
101
(
 1.63481269e-20
 1.63481269e-20
 1.63481269e-20
 1.63481269e-20
 1.63481269e-20
 1.63481269e-20
 1.63481269e-20
 1.63481269e-20
 1.63481269e-20
 1.63481269e-20
 1.63481269e-20
 1.63481269e-20
 1.63481269e-20
 1.63481269e-20
 1.63481269e-20
 1.63481269e-20
 1.63481269e-20
 1.63481269e-20
 1.63481269e-20
 1.63481269e-20
 1.63481269e-20
 1.63481269e-20
 1.63481269e-20
 1.63481269e-20
 1.63481269e-20
 1.63481269e-20
 1.63481269e-20
 1.63481269e-20
 1.63481269e-20
 1.63481269e-20
 1.63481269e-20
 1.63481269e-20
 1.63481269e-20
 1.63481269e-20
 1.63481269e-20
 1.63481269e-20
 1.63481269e-20
 1.63481269e-20
 1.63481269e-20
 1.63481269e-20
 1.63481269e-20
 1.63481269e-20
 1.63481269e-20
 1.63481269e-20
 3.08533646e-10
 1.46382629e-10
 1.46382629e-10
 1.46382629e-10
 1.46382629e-10
 1.46382629e-10
 1.46382629e-10
 5.78960952e-11
 5.78960952e-11
 5.78960952e-11
 5.78960952e-11
 5.78960952e-11
 5.78960952e-11
 5.78960952e-11
 5.78960952e-11
 5.78960952e-11
 5.78960952e-11
 5.78960952e-11
 5.78960952e-11
 5.78960952e-11
 5.78960952e-11
 5.78960952e-11
 5.78960952e-11
 2.48159552e-11
 2.48159552e-11
 2.48159552e-11
 2.48159552e-11
 2.48159552e-11
 2.48159552e-11
 2.48159552e-11
 2.48159552e-11
 2.48159552e-11
 2.48159552e-11
 2.48159552e-11
 2.48159552e-11
 1.35645122e-11
 8.17797460e-12
 8.17797460e-12
 8.17797460e-12
 8.17797460e-12
 8.17797460e-12
 8.17797460e-12
 4.28448885e-12
 4.28448885e-12
 4.28448885e-12
 4.28448885e-12
 4.28448885e-12
 4.28448885e-12
 4.28448885e-12
 1.75976664e-12
 1.75976664e-12
 1.75976664e-12
 1.75976664e-12
 1.75976664e-12
 7.01434974e-13
 6.10805893e-14
 6.10805893e-14
)
)
1
(
101
(
 5.01952125e-20
 5.01952125e-20
 5.01952125e-20
 5.01952125e-20
 5.01952125e-20
 5.01952125e-20
 5.01952125e-20
 5.01952125e-20
 5.01952125e-20
 5.01952125e-20
 5.01952125e-20
 5.01952125e-20
 5.01952125e-20
 5.01952125e-20
 5.01952125e-20
 5.01952125e-20
 5.01952125e-20
 5.01952125e-20
 5.01952125e-20
 5.01952125e-20
 5.01952125e-20
 5.01952125e-20
 5.01952125e-20
 5.01952125e-20
 5.01952125e-20
 5.01952125e-20
 5.01952125e-20
 5.01952125e-20
 5.01952125e-20
 5.01952125e-20
 5.01952125e-20
 5.01952125e-20
 5.01952125e-20
 5.01952125e-20
 5.01952125e-20
 5.01952125e-20
 5.01952125e-20
 5.01952125e-20
 5.01952125e-20
 5.01952125e-20
 5.01952125e-20
 5.01952125e-20
 5.01952125e-20
 5.01952125e-20
 3.08533646e-10
 3.08533646e-10
 3.08533646e-10
 1.46382629e-10
 1.46382629e-10
 1.46382629e-10
 1.46382629e-10
 1.46382629e-10
 1.46382629e-10
 5.78960952e-11
 5.78960952e-11
 5.78960952e-11
 5.78960952e-11
 5.78960952e-11
 5.78960952e-11
 5.78960952e-11
 5.78960952e-11
 5.78960952e-11
 5.78960952e-11
 5.78960952e-11
 5.78960952e-11
 5.78960952e-11
 5.78960952e-11
 5.78960952e-11
 2.48159552e-11
 2.48159552e-11
 2.48159552e-11
 2.48159552e-11
 2.48159552e-11
 2.48159552e-11
 2.48159552e-11
 2.48159552e-11
 2.48159552e-11
 2.48159552e-11
 2.48159552e-11
 2.48159552e-11
 1.35645122e-11
 8.17797460e-12
 8.17797460e-12
 8.17797460e-12
 8.17797460e-12
 8.17797460e-12
 8.17797460e-12
 8.17797460e-12
 4.28448885e-12
 4.28448885e-12
 4.28448885e-12
 4.28448885e-12
 4.28448885e-12
 4.28448885e-12
 1.26472610e-12
 1.75976664e-12
 1.75976664e-12
 1.75976664e-12
 5.38369836e-13
 5.38369836e-13
 6.10805893e-14
)
)
1
(
101
(
 8.35081572e-20
 8.35081572e-20
 8.35081572e-20
 8.35081572e-20
 8.35081572e-20
 8.35081572e-20
 8.35081572e-20
 8.35081572e-20
 8.35081572e-20
 8.35081572e-20
 8.35081572e-20
 8.35081572e-20
 8.35081572e-20
 8.35081572e-20
 8.35081572e-20
 8.35081572e-20
 8.35081572e-20
 8.35081572e-20
 8.35081572e-20
 8.35081572e-20
 8.35081572e-20
 8.35081572e-20
 8.35081572e-20
 8.35081572e-20
 8.35081572e-20
 8.35081572e-20
 8.35081572e-20
 8.35081572e-20
 8.35081572e-20
 8.35081572e-20
 8.35081572e-20
 8.35081572e-20
 8.35081572e-20
 8.35081572e-20
 8.35081572e-20
 8.35081572e-20
 8.35081572e-20
 8.35081572e-20
 8.35081572e-20
 8.35081572e-20
 8.35081572e-20
 8.35081572e-20
 1.50153028e-17
 3.08533646e-10
 3.08533646e-10
 3.08533646e-10
 3.08533646e-10
 3.08533646e-10
 1.46382629e-10
 1.46382629e-10
 1.46382629e-10
 1.46382629e-10
 1.46382629e-10
 1.46382629e-10
 5.78960952e-11
 5.78960952e-11
 5.78960952e-11
 5.78960952e-11
 5.78960952e-11
 5.78960952e-11
 5.78960952e-11
 5.78960952e-11
 5.78960952e-11
 5.78960952e-11
 5.78960952e-11
 5.78960952e-11
 5.78960952e-11
 5.78960952e-11
 5.78960952e-11
 5.78960952e-11
 2.48159552e-11
 2.48159552e-11
 2.48159552e-11
 2.48159552e-11
 2.48159552e-11
 2.48159552e-11
 2.48159552e-11
 2.48159552e-11
 2.48159552e-11
 2.48159552e-11
 2.48159552e-11
 1.35645122e-11
 1.35645122e-11
 8.17797460e-12
 8.17797460e-12
 8.17797460e-12
 8.17797460e-12
 8.17797460e-12
 8.17797460e-12
 4.28448885e-12
 4.28448885e-12
 4.28448885e-12
 4.28448885e-12
 4.28448885e-12
 4.28448885e-12
 1.26472610e-12
 1.26472610e-12
 1.18720364e-12
 1.18720364e-12
 5.38369836e-13
 5.38369836e-13
)
)
1
(
101
(
 2.93570164e-19
 2.93570164e-19
 2.93570164e-19
 2.93570164e-19
 2.93570164e-19
 2.93570164e-19
 2.93570164e-19
 2.93570164e-19
 2.93570164e-19
 2.93570164e-19
 2.93570164e-19
 2.93570164e-19
 2.93570164e-19
 2.93570164e-19
 2.93570164e-19
 2.93570164e-19
 2.93570164e-19
 2.93570164e-19
 2.93570164e-19
 2.93570164e-19
 2.93570164e-19
 2.93570164e-19
 2.93570164e-19
 2.93570164e-19
 2.93570164e-19
 2.93570164e-19
 2.93570164e-19
 2.93570164e-19
 2.93570164e-19
 2.93570164e-19
 2.93570164e-19
 2.93570164e-19
 2.93570164e-19
 1.50153028e-17
 1.50153028e-17
 1.50153028e-17
 1.50153028e-17
 1.50153028e-17
 1.50153028e-17
 1.50153028e-17
 1.50153028e-17
 1.50153028e-17
 1.50153028e-17
 3.08533646e-10
 3.08533646e-10
 3.08533646e-10
 3.08533646e-10
 3.08533646e-10
 3.08533646e-10
 1.46382629e-10
 1.46382629e-10
 1.46382629e-10
 1.46382629e-10
 1.46382629e-10
 1.46382629e-10
 1.46382629e-10
 5.78960952e-11
 5.78960952e-11
 5.78960952e-11
 5.78960952e-11
 5.78960952e-11
 5.78960952e-11
 5.78960952e-11
 5.78960952e-11
 5.78960952e-11
 5.78960952e-11
 5.78960952e-11
 5.78960952e-11
 5.78960952e-11
 5.78960952e-11
 5.78960952e-11
 2.48159552e-11
 2.48159552e-11
 2.48159552e-11
 2.48159552e-11
 2.48159552e-11
 2.48159552e-11
 2.48159552e-11
 2.48159552e-11
 2.48159552e-11
 2.48159552e-11
 2.48159552e-11
 1.35645122e-11
 1.35645122e-11
 8.17797460e-12
 8.17797460e-12
 8.17797460e-12
 8.17797460e-12
 8.17797460e-12
 8.17797460e-12
 8.17797460e-12
 4.28448885e-12
 4.28448885e-12
 4.28448885e-12
 4.28448885e-12
 4.28448885e-12
 1.26472610e-12
 1.26472610e-12
 1.18720364e-12
 1.18720364e-12
 5.38369836e-13
)
)
1
(
101
(
 4.45738731e-19
 4.45738731e-19
 4.45738731e-19
 4.45738731e-19
 4.45738731e-19
 4.45738731e-19
 4.45738731e-19
 4.45738731e-19
 4.45738731e-19
 4.45738731e-19
 4.45738731e-19
 4.45738731e-19
 4.45738731e-19
 4.45738731e-19
 4.45738731e-19
 4.45738731e-19
 4.45738731e-19
 4.45738731e-19
 4.45738731e-19
 4.45738731e-19
 4.45738731e-19
 4.45738731e-19
 4.45738731e-19
 4.45738731e-19
 4.45738731e-19
 4.45738731e-19
 1.50153028e-17
 1.50153028e-17
 1.50153028e-17
 1.50153028e-17
 1.50153028e-17
 1.50153028e-17
 1.50153028e-17
 1.50153028e-17
 1.50153028e-17
 1.50153028e-17
 1.50153028e-17
 1.50153028e-17
 1.50153028e-17
 1.50153028e-17
 1.50153028e-17
 1.50153028e-17
 1.50153028e-17
 3.08533646e-10
 3.08533646e-10
 3.08533646e-10
 3.08533646e-10
 3.08533646e-10
 3.08533646e-10
 3.08533646e-10
 1.46382629e-10
 1.46382629e-10
 1.46382629e-10
 1.46382629e-10
 1.46382629e-10
 1.46382629e-10
 1.46382629e-10
 5.78960952e-11
 5.78960952e-11
 5.78960952e-11
 5.78960952e-11
 5.78960952e-11
 5.78960952e-11
 5.78960952e-11
 5.78960952e-11
 5.78960952e-11
 5.78960952e-11
 5.78960952e-11
 5.78960952e-11
 5.78960952e-11
 5.78960952e-11
 5.78960952e-11
 2.48159552e-11
 2.48159552e-11
 2.48159552e-11
 2.48159552e-11
 2.48159552e-11
 2.48159552e-11
 2.48159552e-11
 2.48159552e-11
 2.48159552e-11
 2.48159552e-11
 2.48159552e-11
 1.35645122e-11
 1.35645122e-11
 1.35645122e-11
 8.17797460e-12
 8.17797460e-12
 8.17797460e-12
 8.17797460e-12
 8.17797460e-12
 8.17797460e-12
 4.51478324e-12
 4.28448885e-12
 4.28448885e-12
 4.28448885e-12
 2.00995107e-12
 2.00995107e-12
 2.00995107e-12
 1.18720364e-12
 1.18720364e-12
)
)
1
(
101
(
 7.72493942e-19
 7.72493942e-19
 7.72493942e-19
 7.72493942e-19
 7.72493942e-19
 7.72493942e-19
 7.72493942e-19
 7.72493942e-19
 7.72493942e-19
 7.72493942e-19
 7.72493942e-19
 7.72493942e-19
 7.72493942e-19
 7.72493942e-19
 7.72493942e-19
 7.72493942e-19
 7.72493942e-19
 7.72493942e-19
 7.72493942e-19
 1.50153028e-17
 1.50153028e-17
 1.50153028e-17
 1.50153028e-17
 1.50153028e-17
 1.50153028e-17
 1.50153028e-17
 1.50153028e-17
 1.50153028e-17
 1.50153028e-17
 1.50153028e-17
 1.50153028e-17
 1.50153028e-17
 1.50153028e-17
 1.50153028e-17
 1.50153028e-17
 1.50153028e-17
 1.50153028e-17
 1.50153028e-17
 1.50153028e-17
 1.50153028e-17
 1.50153028e-17
 1.50153028e-17
 3.08533646e-10
 3.08533646e-10
 3.08533646e-10
 3.08533646e-10
 3.08533646e-10
 3.08533646e-10
 3.08533646e-10
 3.08533646e-10
 3.08533646e-10
 1.46382629e-10
 1.46382629e-10
 1.46382629e-10
 1.46382629e-10
 1.46382629e-10
 1.46382629e-10
 1.46382629e-10
 1.46382629e-10
 5.78960952e-11
 5.78960952e-11
 5.78960952e-11
 5.78960952e-11
 5.78960952e-11
 5.78960952e-11
 5.78960952e-11
 5.78960952e-11
 5.78960952e-11
 5.78960952e-11
 5.78960952e-11
 5.78960952e-11
 5.78960952e-11
 5.78960952e-11
 2.48159552e-11
 2.48159552e-11
 2.48159552e-11
 2.48159552e-11
 2.48159552e-11
 2.48159552e-11
 2.48159552e-11
 2.48159552e-11
 2.48159552e-11
 2.48159552e-11
 2.48159552e-11
 1.35645122e-11
 1.35645122e-11
 1.35645122e-11
 8.17797460e-12
 8.17797460e-12
 8.17797460e-12
 8.17797460e-12
 8.17797460e-12
 8.17797460e-12
 4.51478324e-12
 4.51478324e-12
 2.03911376e-12
 2.03911376e-12
 2.00995107e-12
 2.00995107e-12
 2.00995107e-12
 2.00995107e-12
)
)
1
(
101
(
 3.01418810e-18
 3.01418810e-18
 3.01418810e-18
 3.01418810e-18
 3.01418810e-18
 3.01418810e-18
 3.01418810e-18
 3.01418810e-18
 3.01418810e-18
 3.01418810e-18
 3.01418810e-18
 3.01418810e-18
 3.01418810e-18
 3.01418810e-18
 1.50153028e-17
 1.50153028e-17
 1.50153028e-17
 1.50153028e-17
 1.50153028e-17
 1.50153028e-17
 1.50153028e-17
 1.50153028e-17
 1.50153028e-17
 1.50153028e-17
 1.50153028e-17
 1.50153028e-17
 1.50153028e-17
 1.50153028e-17
 1.50153028e-17
 1.50153028e-17
 1.50153028e-17
 1.50153028e-17
 1.50153028e-17
 1.50153028e-17
 1.50153028e-17
 1.50153028e-17
 1.50153028e-17
 1.50153028e-17
 1.50153028e-17
 1.50153028e-17
 1.50153028e-17
 1.50153028e-17
 3.08533646e-10
 3.08533646e-10
 3.08533646e-10
 3.08533646e-10
 3.08533646e-10
 3.08533646e-10
 3.08533646e-10
 3.08533646e-10
 3.08533646e-10
 3.08533646e-10
 1.46382629e-10
 1.46382629e-10
 1.46382629e-10
 1.46382629e-10
 1.46382629e-10
 1.46382629e-10
 1.46382629e-10
 1.46382629e-10
 5.78960952e-11
 5.78960952e-11
 5.78960952e-11
 5.78960952e-11
 5.78960952e-11
 5.78960952e-11
 5.78960952e-11
 5.78960952e-11
 5.78960952e-11
 5.78960952e-11
 5.78960952e-11
 5.78960952e-11
 5.78960952e-11
 5.78960952e-11
 5.78960952e-11
 2.48159552e-11
 2.48159552e-11
 2.48159552e-11
 2.48159552e-11
 2.48159552e-11
 2.48159552e-11
 2.48159552e-11
 2.48159552e-11
 2.48159552e-11
 2.48159552e-11
 1.35645122e-11
 1.35645122e-11
 1.35645122e-11
 1.35645122e-11
 8.17797460e-12
 8.17797460e-12
 8.17797460e-12
 8.17797460e-12
 8.17797460e-12
 4.51478324e-12
 4.51478324e-12
 2.03911376e-12
 2.03911376e-12
 2.00995107e-12
 2.00995107e-12
 2.00995107e-12
)
)
1
(
101
(
 3.89245302e-18
 3.89245302e-18
 3.89245302e-18
 3.89245302e-18
 3.89245302e-18
 3.89245302e-18
 3.89245302e-18
 3.89245302e-18
 3.89245302e-18
 1.50153028e-17
 1.50153028e-17
 1.50153028e-17
 1.50153028e-17
 1.50153028e-17
 1.50153028e-17
 1.50153028e-17
 1.50153028e-17
 1.50153028e-17
 1.50153028e-17
 1.50153028e-17
 1.50153028e-17
 1.50153028e-17
 1.50153028e-17
 1.50153028e-17
 1.50153028e-17
 1.50153028e-17
 1.50153028e-17
 1.50153028e-17
 1.50153028e-17
 1.50153028e-17
 1.50153028e-17
 1.50153028e-17
 1.50153028e-17
 1.50153028e-17
 1.50153028e-17
 1.50153028e-17
 1.50153028e-17
 1.50153028e-17
 1.50153028e-17
 1.50153028e-17
 1.50153028e-17
 1.50153028e-17
 3.08533646e-10
 3.08533646e-10
 3.08533646e-10
 3.08533646e-10
 3.08533646e-10
 3.08533646e-10
 3.08533646e-10
 3.08533646e-10
 3.08533646e-10
 3.08533646e-10
 3.08533646e-10
 3.08533646e-10
 1.46382629e-10
 1.46382629e-10
 1.46382629e-10
 1.46382629e-10
 1.46382629e-10
 1.46382629e-10
 1.46382629e-10
 1.46382629e-10
 5.78960952e-11
 5.78960952e-11
 5.78960952e-11
 5.78960952e-11
 5.78960952e-11
 5.78960952e-11
 5.78960952e-11
 5.78960952e-11
 5.78960952e-11
 5.78960952e-11
 5.78960952e-11
 5.78960952e-11
 5.78960952e-11
 5.78960952e-11
 2.48159552e-11
 2.48159552e-11
 2.48159552e-11
 2.48159552e-11
 2.48159552e-11
 2.48159552e-11
 2.48159552e-11
 2.48159552e-11
 2.48159552e-11
 2.48159552e-11
 1.35645122e-11
 1.35645122e-11
 1.35645122e-11
 1.35645122e-11
 8.56731391e-12
 8.17797460e-12
 8.17797460e-12
 8.17797460e-12
 8.17797460e-12
 4.51478324e-12
 4.51478324e-12
 2.03911376e-12
 2.03911376e-12
 2.00995107e-12
 2.00995107e-12
)
)
1
(
101
(
 7.03061278e-18
 7.03061278e-18
 7.03061278e-18
 7.03061278e-18
 7.03061278e-18
 7.03061278e-18
 1.50153028e-17
 1.50153028e-17
 1.50153028e-17
 1.50153028e-17
 1.50153028e-17
 1.50153028e-17
 1.50153028e-17
 1.50153028e-17
 1.50153028e-17
 1.50153028e-17
 1.50153028e-17
 1.50153028e-17
 1.50153028e-17
 1.50153028e-17
 1.50153028e-17
 1.50153028e-17
 1.50153028e-17
 1.50153028e-17
 1.50153028e-17
 1.50153028e-17
 1.50153028e-17
 1.50153028e-17
 1.50153028e-17
 1.50153028e-17
 1.50153028e-17
 1.50153028e-17
 1.50153028e-17
 1.50153028e-17
 1.50153028e-17
 1.50153028e-17
 1.50153028e-17
 1.50153028e-17
 1.50153028e-17
 1.50153028e-17
 1.50153028e-17
 1.50153028e-17
 3.08533646e-10
 3.08533646e-10
 3.08533646e-10
 3.08533646e-10
 3.08533646e-10
 3.08533646e-10
 3.08533646e-10
 3.08533646e-10
 3.08533646e-10
 3.08533646e-10
 3.08533646e-10
 3.08533646e-10
 3.08533646e-10
 1.46382629e-10
 1.46382629e-10
 1.46382629e-10
 1.46382629e-10
 1.46382629e-10
 1.46382629e-10
 1.46382629e-10
 1.46382629e-10
 5.78960952e-11
 5.78960952e-11
 5.78960952e-11
 5.78960952e-11
 5.78960952e-11
 5.78960952e-11
 5.78960952e-11
 5.78960952e-11
 5.78960952e-11
 5.78960952e-11
 5.78960952e-11
 5.78960952e-11
 5.78960952e-11
 5.78960952e-11
 2.48159552e-11
 2.48159552e-11
 2.48159552e-11
 2.48159552e-11
 2.48159552e-11
 2.48159552e-11
 2.48159552e-11
 2.48159552e-11
 2.48159552e-11
 2.48159552e-11
 1.35645122e-11
 1.35645122e-11
 1.35645122e-11
 1.35645122e-11
 8.56731391e-12
 8.56731391e-12
 4.24635400e-12
 4.24635400e-12
 4.24635400e-12
 4.51478324e-12
 4.51478324e-12
 2.03911376e-12
 2.03911376e-12
 2.00995107e-12
)
)
1
(
101
(
 1.36073647e-17
 1.36073647e-17
 1.36073647e-17
 1.50153028e-17
 1.50153028e-17
 1.50153028e-17
 1.50153028e-17
 1.50153028e-17
 1.50153028e-17
 1.50153028e-17
 1.50153028e-17
 1.50153028e-17
 1.50153028e-17
 1.50153028e-17
 1.50153028e-17
 1.50153028e-17
 1.50153028e-17
 1.50153028e-17
 1.50153028e-17
 1.50153028e-17
 1.50153028e-17
 1.50153028e-17
 1.50153028e-17
 1.50153028e-17
 1.50153028e-17
 1.50153028e-17
 1.50153028e-17
 1.50153028e-17
 1.50153028e-17
 1.50153028e-17
 1.50153028e-17
 1.50153028e-17
 1.50153028e-17
 1.50153028e-17
 1.50153028e-17
 1.50153028e-17
 1.50153028e-17
 1.50153028e-17
 1.50153028e-17
 1.50153028e-17
 1.50153028e-17
 4.64188898e-10
 3.08533646e-10
 3.08533646e-10
 3.08533646e-10
 3.08533646e-10
 3.08533646e-10
 3.08533646e-10
 3.08533646e-10
 3.08533646e-10
 3.08533646e-10
 3.08533646e-10
 3.08533646e-10
 3.08533646e-10
 3.08533646e-10
 3.08533646e-10
 1.46382629e-10
 1.46382629e-10
 1.46382629e-10
 1.46382629e-10
 1.46382629e-10
 1.46382629e-10
 1.46382629e-10
 1.46382629e-10
 1.46382629e-10
 5.78960952e-11
 5.78960952e-11
 5.78960952e-11
 5.78960952e-11
 5.78960952e-11
 5.78960952e-11
 5.78960952e-11
 5.78960952e-11
 5.78960952e-11
 5.78960952e-11
 5.78960952e-11
 5.78960952e-11
 5.78960952e-11
 2.48159552e-11
 2.48159552e-11
 2.48159552e-11
 2.48159552e-11
 2.48159552e-11
 2.48159552e-11
 2.48159552e-11
 2.48159552e-11
 2.48159552e-11
 2.48159552e-11
 1.35645122e-11
 1.35645122e-11
 1.35645122e-11
 1.35645122e-11
 8.56731391e-12
 8.56731391e-12
 4.24635400e-12
 4.24635400e-12
 4.24635400e-12
 4.24635400e-12
 4.51478324e-12
 2.03911376e-12
 2.03911376e-12
)
)
1
(
101
(
 3.16191455e-18
 3.16191455e-18
 1.50153028e-17
 1.50153028e-17
 1.50153028e-17
 1.50153028e-17
 1.50153028e-17
 1.50153028e-17
 1.50153028e-17
 1.50153028e-17
 1.50153028e-17
 1.50153028e-17
 1.50153028e-17
 1.50153028e-17
 1.50153028e-17
 1.50153028e-17
 1.50153028e-17
 1.50153028e-17
 1.50153028e-17
 1.50153028e-17
 1.50153028e-17
 1.50153028e-17
 1.50153028e-17
 1.50153028e-17
 1.50153028e-17
 1.50153028e-17
 1.50153028e-17
 1.50153028e-17
 1.50153028e-17
 1.50153028e-17
 1.50153028e-17
 1.50153028e-17
 1.50153028e-17
 1.50153028e-17
 1.50153028e-17
 1.50153028e-17
 1.50153028e-17
 1.50153028e-17
 1.50153028e-17
 1.50153028e-17
 1.50153028e-17
 4.64188898e-10
 4.64188898e-10
 3.08533646e-10
 3.08533646e-10
 3.08533646e-10
 3.08533646e-10
 3.08533646e-10
 3.08533646e-10
 3.08533646e-10
 3.08533646e-10
 3.08533646e-10
 3.08533646e-10
 3.08533646e-10
 3.08533646e-10
 3.08533646e-10
 3.08533646e-10
 1.46382629e-10
 1.46382629e-10
 1.46382629e-10
 1.46382629e-10
 1.46382629e-10
 1.46382629e-10
 1.46382629e-10
 1.46382629e-10
 1.46382629e-10
 5.78960952e-11
 5.78960952e-11
 5.78960952e-11
 5.78960952e-11
 5.78960952e-11
 5.78960952e-11
 5.78960952e-11
 5.78960952e-11
 5.78960952e-11
 5.78960952e-11
 5.78960952e-11
 5.78960952e-11
 5.78960952e-11
 5.78960952e-11
 2.48159552e-11
 2.48159552e-11
 2.48159552e-11
 2.48159552e-11
 2.48159552e-11
 2.48159552e-11
 2.48159552e-11
 2.48159552e-11
 1.45787276e-11
 1.35645122e-11
 1.35645122e-11
 1.35645122e-11
 8.62302989e-13
 8.62302989e-13
 8.62302989e-13
 4.24635400e-12
 4.24635400e-12
 4.24635400e-12
 4.24635400e-12
 4.24635400e-12
 2.03911376e-12
)
)
1
(
101
(
 1.50229255e-27
 1.50153028e-17
 1.50153028e-17
 1.50153028e-17
 1.50153028e-17
 1.50153028e-17
 1.50153028e-17
 1.50153028e-17
 1.50153028e-17
 1.50153028e-17
 1.50153028e-17
 1.50153028e-17
 1.50153028e-17
 1.50153028e-17
 1.50153028e-17
 1.50153028e-17
 1.50153028e-17
 1.50153028e-17
 1.50153028e-17
 1.50153028e-17
 1.50153028e-17
 1.50153028e-17
 1.50153028e-17
 1.50153028e-17
 1.50153028e-17
 1.50153028e-17
 1.50153028e-17
 1.50153028e-17
 1.50153028e-17
 1.50153028e-17
 1.50153028e-17
 1.50153028e-17
 1.50153028e-17
 1.50153028e-17
 1.50153028e-17
 1.50153028e-17
 1.50153028e-17
 1.50153028e-17
 1.50153028e-17
 1.50153028e-17
 4.64188898e-10
 4.64188898e-10
 4.64188898e-10
 4.64188898e-10
 3.08533646e-10
 3.08533646e-10
 3.08533646e-10
 3.08533646e-10
 3.08533646e-10
 3.08533646e-10
 3.08533646e-10
 3.08533646e-10
 3.08533646e-10
 3.08533646e-10
 3.08533646e-10
 3.08533646e-10
 3.08533646e-10
 3.08533646e-10
 1.46382629e-10
 1.46382629e-10
 1.46382629e-10
 1.46382629e-10
 1.46382629e-10
 1.46382629e-10
 1.46382629e-10
 1.46382629e-10
 1.46382629e-10
 1.46382629e-10
 5.78960952e-11
 5.78960952e-11
 5.78960952e-11
 5.78960952e-11
 5.78960952e-11
 5.78960952e-11
 5.78960952e-11
 5.78960952e-11
 5.78960952e-11
 5.78960952e-11
 5.78960952e-11
 5.78960952e-11
 5.78960952e-11
 4.43172374e-11
 2.48159552e-11
 2.48159552e-11
 2.48159552e-11
 2.48159552e-11
 2.48159552e-11
 2.48159552e-11
 2.48159552e-11
 1.45787276e-11
 1.45787276e-11
 7.83832267e-12
 7.83832267e-12
 8.62302989e-13
 8.62302989e-13
 8.62302989e-13
 8.62302989e-13
 4.24635400e-12
 4.24635400e-12
 4.24635400e-12
 4.24635400e-12
)
)
1
(
101
(
 1.50229255e-27
 4.10221796e-17
 4.10221796e-17
 4.10221796e-17
 4.10221796e-17
 4.10221796e-17
 4.10221796e-17
 4.10221796e-17
 4.10221796e-17
 4.10221796e-17
 4.10221796e-17
 4.10221796e-17
 4.10221796e-17
 4.10221796e-17
 4.10221796e-17
 4.10221796e-17
 4.10221796e-17
 4.10221796e-17
 4.10221796e-17
 4.10221796e-17
 4.10221796e-17
 4.10221796e-17
 4.10221796e-17
 4.10221796e-17
 4.10221796e-17
 4.10221796e-17
 4.10221796e-17
 4.10221796e-17
 4.10221796e-17
 4.10221796e-17
 4.10221796e-17
 4.10221796e-17
 4.10221796e-17
 4.10221796e-17
 4.10221796e-17
 4.10221796e-17
 4.10221796e-17
 4.10221796e-17
 4.10221796e-17
 4.10221796e-17
 4.64188898e-10
 4.64188898e-10
 4.64188898e-10
 4.64188898e-10
 4.64188898e-10
 3.08533646e-10
 3.08533646e-10
 3.08533646e-10
 3.08533646e-10
 3.08533646e-10
 3.08533646e-10
 3.08533646e-10
 3.08533646e-10
 3.08533646e-10
 3.08533646e-10
 3.08533646e-10
 3.08533646e-10
 3.08533646e-10
 3.08533646e-10
 1.46382629e-10
 1.46382629e-10
 1.46382629e-10
 1.46382629e-10
 1.46382629e-10
 1.46382629e-10
 1.46382629e-10
 1.46382629e-10
 1.46382629e-10
 1.46382629e-10
 5.78960952e-11
 5.78960952e-11
 5.78960952e-11
 5.78960952e-11
 5.78960952e-11
 5.78960952e-11
 5.78960952e-11
 5.78960952e-11
 5.78960952e-11
 5.78960952e-11
 5.78960952e-11
 5.78960952e-11
 5.78960952e-11
 4.43172374e-11
 4.43172374e-11
 2.48159552e-11
 2.48159552e-11
 2.48159552e-11
 2.48159552e-11
 2.48159552e-11
 1.45787276e-11
 1.45787276e-11
 1.45787276e-11
 7.83832267e-12
 7.83832267e-12
 8.62302989e-13
 8.62302989e-13
 8.62302989e-13
 8.62302989e-13
 8.62302989e-13
 4.24635400e-12
 4.24635400e-12
)
)
1
(
101
(
 7.96593195e-17
 7.96593195e-17
 7.96593195e-17
 7.96593195e-17
 7.96593195e-17
 7.96593195e-17
 7.96593195e-17
 7.96593195e-17
 7.96593195e-17
 7.96593195e-17
 7.96593195e-17
 7.96593195e-17
 7.96593195e-17
 7.96593195e-17
 7.96593195e-17
 7.96593195e-17
 7.96593195e-17
 7.96593195e-17
 7.96593195e-17
 7.96593195e-17
 7.96593195e-17
 7.96593195e-17
 7.96593195e-17
 7.96593195e-17
 7.96593195e-17
 7.96593195e-17
 7.96593195e-17
 7.96593195e-17
 7.96593195e-17
 7.96593195e-17
 7.96593195e-17
 7.96593195e-17
 7.96593195e-17
 7.96593195e-17
 7.96593195e-17
 7.96593195e-17
 7.96593195e-17
 7.96593195e-17
 7.96593195e-17
 7.96593195e-17
 4.64188898e-10
 4.64188898e-10
 4.64188898e-10
 4.64188898e-10
 4.64188898e-10
 4.64188898e-10
 3.08533646e-10
 3.08533646e-10
 3.08533646e-10
 3.08533646e-10
 3.08533646e-10
 3.08533646e-10
 3.08533646e-10
 3.08533646e-10
 3.08533646e-10
 3.08533646e-10
 3.08533646e-10
 3.08533646e-10
 3.08533646e-10
 3.08533646e-10
 3.08533646e-10
 1.46382629e-10
 1.46382629e-10
 1.46382629e-10
 1.46382629e-10
 1.46382629e-10
 1.46382629e-10
 1.46382629e-10
 1.46382629e-10
 1.46382629e-10
 1.46382629e-10
 5.78960952e-11
 5.78960952e-11
 5.78960952e-11
 5.78960952e-11
 5.78960952e-11
 5.78960952e-11
 5.78960952e-11
 5.78960952e-11
 5.78960952e-11
 5.78960952e-11
 5.78960952e-11
 5.78960952e-11
 4.43172374e-11
 4.43172374e-11
 4.43172374e-11
 2.48159552e-11
 2.48159552e-11
 2.48159552e-11
 2.48159552e-11
 1.45787276e-11
 1.45787276e-11
 1.45787276e-11
 7.83832267e-12
 7.83832267e-12
 8.62302989e-13
 8.62302989e-13
 8.62302989e-13
 8.62302989e-13
 8.62302989e-13
 8.62302989e-13
)
)
1
(
101
(
 1.41421835e-16
 1.41421835e-16
 1.41421835e-16
 1.41421835e-16
 1.41421835e-16
 1.41421835e-16
 1.41421835e-16
 1.41421835e-16
 1.41421835e-16
 1.41421835e-16
 1.41421835e-16
 1.41421835e-16
 1.41421835e-16
 1.41421835e-16
 1.41421835e-16
 1.41421835e-16
 1.41421835e-16
 1.41421835e-16
 1.41421835e-16
 1.41421835e-16
 1.41421835e-16
 1.41421835e-16
 1.41421835e-16
 1.41421835e-16
 1.41421835e-16
 1.41421835e-16
 1.41421835e-16
 1.41421835e-16
 1.41421835e-16
 1.41421835e-16
 1.41421835e-16
 1.41421835e-16
 1.41421835e-16
 1.41421835e-16
 1.41421835e-16
 1.41421835e-16
 1.41421835e-16
 1.41421835e-16
 1.41421835e-16
 4.64188898e-10
 4.64188898e-10
 4.64188898e-10
 4.64188898e-10
 4.64188898e-10
 4.64188898e-10
 4.64188898e-10
 4.64188898e-10
 4.64188898e-10
 3.08533646e-10
 3.08533646e-10
 3.08533646e-10
 3.08533646e-10
 3.08533646e-10
 3.08533646e-10
 3.08533646e-10
 3.08533646e-10
 3.08533646e-10
 3.08533646e-10
 3.08533646e-10
 3.08533646e-10
 3.08533646e-10
 3.08533646e-10
 1.46382629e-10
 1.46382629e-10
 1.46382629e-10
 1.46382629e-10
 1.46382629e-10
 1.46382629e-10
 1.46382629e-10
 1.46382629e-10
 1.46382629e-10
 1.46382629e-10
 5.78960952e-11
 5.78960952e-11
 5.78960952e-11
 5.78960952e-11
 5.78960952e-11
 5.78960952e-11
 5.78960952e-11
 5.78960952e-11
 5.78960952e-11
 5.78960952e-11
 5.78960952e-11
 5.78960952e-11
 4.43172374e-11
 4.43172374e-11
 4.43172374e-11
 4.43172374e-11
 2.38139176e-11
 2.38139176e-11
 2.38139176e-11
 1.45787276e-11
 1.45787276e-11
 1.45787276e-11
 7.83832267e-12
 7.83832267e-12
 8.62302989e-13
 8.62302989e-13
 8.62302989e-13