/*--------------------------------*- C++ -*----------------------------------*\
| =========                 |                                                 |
| \\      /  F ield        | OpenFOAM: The Open Source CFD Toolbox           |
|  \\    /   O peration    | Version:  7                                     |
|   \\  /    A nd          | Web:      http://www.OpenFOAM.com               |
|    \\/     M anipulation |                                                 |
\*---------------------------------------------------------------------------*/

FoamFile
{
    version     2.0;
    format      ascii;
    class       dictionary;
    object      Y_C2H_table;
}

Y_C2H_table
2
(
101
(
1
(
101
(
 1.13345846e-28
 1.13345846e-28
 1.13345846e-28
 1.13345846e-28
 1.13345846e-28
 1.13345846e-28
 1.13345846e-28
 1.13345846e-28
 1.13345846e-28
 1.13345846e-28
 1.13345846e-28
 1.13345846e-28
 1.13345846e-28
 1.13345846e-28
 1.13345846e-28
 1.13345846e-28
 1.13345846e-28
 1.13345846e-28
 1.13345846e-28
 1.13345846e-28
 1.13345846e-28
 1.13345846e-28
 1.13345846e-28
 1.13345846e-28
 1.13345846e-28
 1.13345846e-28
 1.13345846e-28
 1.13345846e-28
 1.13345846e-28
 1.13345846e-28
 1.13345846e-28
 1.13345846e-28
 1.13345846e-28
 1.13345846e-28
 1.13345846e-28
 1.13345846e-28
 1.13345846e-28
 1.13345846e-28
 1.13345846e-28
 1.13345846e-28
 1.13345846e-28
 1.13345846e-28
 1.13345846e-28
 1.13345846e-28
 1.13345846e-28
 2.61656922e-18
 2.61656922e-18
 1.97620150e-18
 1.97620150e-18
 1.97620150e-18
 1.97620150e-18
 1.97620150e-18
 1.97620150e-18
 1.97620150e-18
 1.97620150e-18
 1.97620150e-18
 1.97620150e-18
 1.97620150e-18
 1.97620150e-18
 1.97620150e-18
 1.97620150e-18
 1.97620150e-18
 1.97620150e-18
 3.31782017e-19
 3.31782017e-19
 3.31782017e-19
 3.31782017e-19
 3.31782017e-19
 3.31782017e-19
 3.31782017e-19
 3.31782017e-19
 3.31782017e-19
 3.31782017e-19
 3.31782017e-19
 3.31782017e-19
 4.64818601e-21
 4.64818601e-21
 4.64818601e-21
 4.64818601e-21
 4.64818601e-21
 4.64818601e-21
 4.64818601e-21
 1.33804189e-21
 1.33804189e-21
 1.33804189e-21
 1.33804189e-21
 1.33804189e-21
 1.33804189e-21
 1.29738567e-22
 1.29738567e-22
 1.29738567e-22
 1.29738567e-22
 1.29738567e-22
 1.29738567e-22
 1.29738567e-22
 5.78411824e-20
 5.78411824e-20
 5.78411824e-20
 5.78411824e-20
 5.78411824e-20
 2.64252277e-15
)
)
1
(
101
(
 6.62704366e-27
 6.62704366e-27
 6.62704366e-27
 6.62704366e-27
 6.62704366e-27
 6.62704366e-27
 6.62704366e-27
 6.62704366e-27
 6.62704366e-27
 6.62704366e-27
 6.62704366e-27
 6.62704366e-27
 6.62704366e-27
 6.62704366e-27
 6.62704366e-27
 6.62704366e-27
 6.62704366e-27
 6.62704366e-27
 6.62704366e-27
 6.62704366e-27
 6.62704366e-27
 6.62704366e-27
 6.62704366e-27
 6.62704366e-27
 6.62704366e-27
 6.62704366e-27
 6.62704366e-27
 6.62704366e-27
 6.62704366e-27
 6.62704366e-27
 6.62704366e-27
 6.62704366e-27
 6.62704366e-27
 6.62704366e-27
 6.62704366e-27
 6.62704366e-27
 6.62704366e-27
 6.62704366e-27
 6.62704366e-27
 6.62704366e-27
 6.62704366e-27
 6.62704366e-27
 6.62704366e-27
 6.62704366e-27
 6.62704366e-27
 2.61656922e-18
 2.61656922e-18
 2.61656922e-18
 1.97620150e-18
 1.97620150e-18
 1.97620150e-18
 1.97620150e-18
 1.97620150e-18
 1.97620150e-18
 1.97620150e-18
 1.97620150e-18
 1.97620150e-18
 1.97620150e-18
 1.97620150e-18
 1.97620150e-18
 1.97620150e-18
 1.97620150e-18
 1.97620150e-18
 1.97620150e-18
 1.97620150e-18
 3.31782017e-19
 3.31782017e-19
 3.31782017e-19
 3.31782017e-19
 3.31782017e-19
 3.31782017e-19
 3.31782017e-19
 3.31782017e-19
 3.31782017e-19
 3.31782017e-19
 3.31782017e-19
 3.31782017e-19
 4.64818601e-21
 4.64818601e-21
 4.64818601e-21
 4.64818601e-21
 4.64818601e-21
 4.64818601e-21
 1.33804189e-21
 1.33804189e-21
 1.33804189e-21
 1.33804189e-21
 1.33804189e-21
 1.33804189e-21
 1.33804189e-21
 1.29738567e-22
 1.29738567e-22
 1.29738567e-22
 1.29738567e-22
 1.29738567e-22
 1.29738567e-22
 7.69720599e-23
 5.78411824e-20
 5.78411824e-20
 5.78411824e-20
 1.54128630e-19
)
)
1
(
101
(
 2.53140351e-26
 2.53140351e-26
 2.53140351e-26
 2.53140351e-26
 2.53140351e-26
 2.53140351e-26
 2.53140351e-26
 2.53140351e-26
 2.53140351e-26
 2.53140351e-26
 2.53140351e-26
 2.53140351e-26
 2.53140351e-26
 2.53140351e-26
 2.53140351e-26
 2.53140351e-26
 2.53140351e-26
 2.53140351e-26
 2.53140351e-26
 2.53140351e-26
 2.53140351e-26
 2.53140351e-26
 2.53140351e-26
 2.53140351e-26
 2.53140351e-26
 2.53140351e-26
 2.53140351e-26
 2.53140351e-26
 2.53140351e-26
 2.53140351e-26
 2.53140351e-26
 2.53140351e-26
 2.53140351e-26
 2.53140351e-26
 2.53140351e-26
 2.53140351e-26
 2.53140351e-26
 2.53140351e-26
 2.53140351e-26
 2.53140351e-26
 2.53140351e-26
 2.53140351e-26
 2.53140351e-26
 2.53140351e-26
 2.61656922e-18
 2.61656922e-18
 2.61656922e-18
 2.61656922e-18
 2.61656922e-18
 2.61656922e-18
 1.97620150e-18
 1.97620150e-18
 1.97620150e-18
 1.97620150e-18
 1.97620150e-18
 1.97620150e-18
 1.97620150e-18
 1.97620150e-18
 1.97620150e-18
 1.97620150e-18
 1.97620150e-18
 1.97620150e-18
 1.97620150e-18
 1.97620150e-18
 1.97620150e-18
 1.97620150e-18
 3.31782017e-19
 3.31782017e-19
 3.31782017e-19
 3.31782017e-19
 3.31782017e-19
 3.31782017e-19
 3.31782017e-19
 3.31782017e-19
 3.31782017e-19
 3.31782017e-19
 3.31782017e-19
 3.31782017e-19
 4.64818601e-21
 4.64818601e-21
 4.64818601e-21
 4.64818601e-21
 4.64818601e-21
 4.64818601e-21
 4.64818601e-21
 1.33804189e-21
 1.33804189e-21
 1.33804189e-21
 1.33804189e-21
 1.33804189e-21
 1.33804189e-21
 1.29738567e-22
 1.29738567e-22
 1.29738567e-22
 1.29738567e-22
 1.29738567e-22
 1.29738567e-22
 7.69720599e-23
 7.69720599e-23
 8.05169747e-22
 8.05169747e-22
)
)
1
(
101
(
 7.16155453e-27
 7.16155453e-27
 7.16155453e-27
 7.16155453e-27
 7.16155453e-27
 7.16155453e-27
 7.16155453e-27
 7.16155453e-27
 7.16155453e-27
 7.16155453e-27
 7.16155453e-27
 7.16155453e-27
 7.16155453e-27
 7.16155453e-27
 7.16155453e-27
 7.16155453e-27
 7.16155453e-27
 7.16155453e-27
 7.16155453e-27
 7.16155453e-27
 7.16155453e-27
 7.16155453e-27
 7.16155453e-27
 7.16155453e-27
 7.16155453e-27
 7.16155453e-27
 7.16155453e-27
 7.16155453e-27
 7.16155453e-27
 7.16155453e-27
 7.16155453e-27
 7.16155453e-27
 7.16155453e-27
 7.16155453e-27
 7.16155453e-27
 7.16155453e-27
 7.16155453e-27
 7.16155453e-27
 7.16155453e-27
 7.16155453e-27
 7.16155453e-27
 7.16155453e-27
 7.16155453e-27
 7.16155453e-27
 9.77427882e-18
 2.61656922e-18
 2.61656922e-18
 2.61656922e-18
 2.61656922e-18
 2.61656922e-18
 2.61656922e-18
 1.97620150e-18
 1.97620150e-18
 1.97620150e-18
 1.97620150e-18
 1.97620150e-18
 1.97620150e-18
 1.97620150e-18
 1.97620150e-18
 1.97620150e-18
 1.97620150e-18
 1.97620150e-18
 1.97620150e-18
 1.97620150e-18
 1.97620150e-18
 1.97620150e-18
 1.97620150e-18
 3.31782017e-19
 3.31782017e-19
 3.31782017e-19
 3.31782017e-19
 3.31782017e-19
 3.31782017e-19
 3.31782017e-19
 3.31782017e-19
 3.31782017e-19
 3.31782017e-19
 3.31782017e-19
 3.31782017e-19
 2.43160118e-20
 4.64818601e-21
 4.64818601e-21
 4.64818601e-21
 4.64818601e-21
 4.64818601e-21
 4.64818601e-21
 1.33804189e-21
 1.33804189e-21
 1.33804189e-21
 1.33804189e-21
 1.33804189e-21
 1.33804189e-21
 1.33804189e-21
 1.29738567e-22
 1.29738567e-22
 1.29738567e-22
 1.29738567e-22
 1.29738567e-22
 7.69720599e-23
 6.78673519e-25
 6.78673519e-25
)
)
1
(
101
(
 2.30407724e-26
 2.30407724e-26
 2.30407724e-26
 2.30407724e-26
 2.30407724e-26
 2.30407724e-26
 2.30407724e-26
 2.30407724e-26
 2.30407724e-26
 2.30407724e-26
 2.30407724e-26
 2.30407724e-26
 2.30407724e-26
 2.30407724e-26
 2.30407724e-26
 2.30407724e-26
 2.30407724e-26
 2.30407724e-26
 2.30407724e-26
 2.30407724e-26
 2.30407724e-26
 2.30407724e-26
 2.30407724e-26
 2.30407724e-26
 2.30407724e-26
 2.30407724e-26
 2.30407724e-26
 2.30407724e-26
 2.30407724e-26
 2.30407724e-26
 2.30407724e-26
 2.30407724e-26
 2.30407724e-26
 2.30407724e-26
 2.30407724e-26
 2.30407724e-26
 2.30407724e-26
 2.30407724e-26
 2.30407724e-26
 2.30407724e-26
 2.30407724e-26
 2.30407724e-26
 2.30407724e-26
 2.30407724e-26
 9.77427882e-18
 9.77427882e-18
 9.77427882e-18
 2.61656922e-18
 2.61656922e-18
 2.61656922e-18
 2.61656922e-18
 2.61656922e-18
 2.61656922e-18
 1.97620150e-18
 1.97620150e-18
 1.97620150e-18
 1.97620150e-18
 1.97620150e-18
 1.97620150e-18
 1.97620150e-18
 1.97620150e-18
 1.97620150e-18
 1.97620150e-18
 1.97620150e-18
 1.97620150e-18
 1.97620150e-18
 1.97620150e-18
 1.97620150e-18
 3.31782017e-19
 3.31782017e-19
 3.31782017e-19
 3.31782017e-19
 3.31782017e-19
 3.31782017e-19
 3.31782017e-19
 3.31782017e-19
 3.31782017e-19
 3.31782017e-19
 3.31782017e-19
 3.31782017e-19
 2.43160118e-20
 4.64818601e-21
 4.64818601e-21
 4.64818601e-21
 4.64818601e-21
 4.64818601e-21
 4.64818601e-21
 4.64818601e-21
 1.33804189e-21
 1.33804189e-21
 1.33804189e-21
 1.33804189e-21
 1.33804189e-21
 1.33804189e-21
 3.16361193e-22
 1.29738567e-22
 1.29738567e-22
 1.29738567e-22
 2.38752099e-23
 2.38752099e-23
 6.78673519e-25
)
)
1
(
101
(
 7.77268982e-26
 7.77268982e-26
 7.77268982e-26
 7.77268982e-26
 7.77268982e-26
 7.77268982e-26
 7.77268982e-26
 7.77268982e-26
 7.77268982e-26
 7.77268982e-26
 7.77268982e-26
 7.77268982e-26
 7.77268982e-26
 7.77268982e-26
 7.77268982e-26
 7.77268982e-26
 7.77268982e-26
 7.77268982e-26
 7.77268982e-26
 7.77268982e-26
 7.77268982e-26
 7.77268982e-26
 7.77268982e-26
 7.77268982e-26
 7.77268982e-26
 7.77268982e-26
 7.77268982e-26
 7.77268982e-26
 7.77268982e-26
 7.77268982e-26
 7.77268982e-26
 7.77268982e-26
 7.77268982e-26
 7.77268982e-26
 7.77268982e-26
 7.77268982e-26
 7.77268982e-26
 7.77268982e-26
 7.77268982e-26
 7.77268982e-26
 7.77268982e-26
 7.77268982e-26
 1.75485741e-21
 9.77427882e-18
 9.77427882e-18
 9.77427882e-18
 9.77427882e-18
 9.77427882e-18
 2.61656922e-18
 2.61656922e-18
 2.61656922e-18
 2.61656922e-18
 2.61656922e-18
 2.61656922e-18
 1.97620150e-18
 1.97620150e-18
 1.97620150e-18
 1.97620150e-18
 1.97620150e-18
 1.97620150e-18
 1.97620150e-18
 1.97620150e-18
 1.97620150e-18
 1.97620150e-18
 1.97620150e-18
 1.97620150e-18
 1.97620150e-18
 1.97620150e-18
 1.97620150e-18
 1.97620150e-18
 3.31782017e-19
 3.31782017e-19
 3.31782017e-19
 3.31782017e-19
 3.31782017e-19
 3.31782017e-19
 3.31782017e-19
 3.31782017e-19
 3.31782017e-19
 3.31782017e-19
 3.31782017e-19
 2.43160118e-20
 2.43160118e-20
 4.64818601e-21
 4.64818601e-21
 4.64818601e-21
 4.64818601e-21
 4.64818601e-21
 4.64818601e-21
 1.33804189e-21
 1.33804189e-21
 1.33804189e-21
 1.33804189e-21
 1.33804189e-21
 1.33804189e-21
 3.16361193e-22
 3.16361193e-22
 1.06155478e-22
 1.06155478e-22
 2.38752099e-23
 2.38752099e-23
)
)
1
(
101
(
 5.22393071e-25
 5.22393071e-25
 5.22393071e-25
 5.22393071e-25
 5.22393071e-25
 5.22393071e-25
 5.22393071e-25
 5.22393071e-25
 5.22393071e-25
 5.22393071e-25
 5.22393071e-25
 5.22393071e-25
 5.22393071e-25
 5.22393071e-25
 5.22393071e-25
 5.22393071e-25
 5.22393071e-25
 5.22393071e-25
 5.22393071e-25
 5.22393071e-25
 5.22393071e-25
 5.22393071e-25
 5.22393071e-25
 5.22393071e-25
 5.22393071e-25
 5.22393071e-25
 5.22393071e-25
 5.22393071e-25
 5.22393071e-25
 5.22393071e-25
 5.22393071e-25
 5.22393071e-25
 5.22393071e-25
 1.75485741e-21
 1.75485741e-21
 1.75485741e-21
 1.75485741e-21
 1.75485741e-21
 1.75485741e-21
 1.75485741e-21
 1.75485741e-21
 1.75485741e-21
 1.75485741e-21
 9.77427882e-18
 9.77427882e-18
 9.77427882e-18
 9.77427882e-18
 9.77427882e-18
 9.77427882e-18
 2.61656922e-18
 2.61656922e-18
 2.61656922e-18
 2.61656922e-18
 2.61656922e-18
 2.61656922e-18
 2.61656922e-18
 1.97620150e-18
 1.97620150e-18
 1.97620150e-18
 1.97620150e-18
 1.97620150e-18
 1.97620150e-18
 1.97620150e-18
 1.97620150e-18
 1.97620150e-18
 1.97620150e-18
 1.97620150e-18
 1.97620150e-18
 1.97620150e-18
 1.97620150e-18
 1.97620150e-18
 3.31782017e-19
 3.31782017e-19
 3.31782017e-19
 3.31782017e-19
 3.31782017e-19
 3.31782017e-19
 3.31782017e-19
 3.31782017e-19
 3.31782017e-19
 3.31782017e-19
 3.31782017e-19
 2.43160118e-20
 2.43160118e-20
 4.64818601e-21
 4.64818601e-21
 4.64818601e-21
 4.64818601e-21
 4.64818601e-21
 4.64818601e-21
 4.64818601e-21
 1.33804189e-21
 1.33804189e-21
 1.33804189e-21
 1.33804189e-21
 1.33804189e-21
 3.16361193e-22
 3.16361193e-22
 1.06155478e-22
 1.06155478e-22
 2.38752099e-23
)
)
1
(
101
(
 1.66713367e-24
 1.66713367e-24
 1.66713367e-24
 1.66713367e-24
 1.66713367e-24
 1.66713367e-24
 1.66713367e-24
 1.66713367e-24
 1.66713367e-24
 1.66713367e-24
 1.66713367e-24
 1.66713367e-24
 1.66713367e-24
 1.66713367e-24
 1.66713367e-24
 1.66713367e-24
 1.66713367e-24
 1.66713367e-24
 1.66713367e-24
 1.66713367e-24
 1.66713367e-24
 1.66713367e-24
 1.66713367e-24
 1.66713367e-24
 1.66713367e-24
 1.66713367e-24
 1.75485741e-21
 1.75485741e-21
 1.75485741e-21
 1.75485741e-21
 1.75485741e-21
 1.75485741e-21
 1.75485741e-21
 1.75485741e-21
 1.75485741e-21
 1.75485741e-21
 1.75485741e-21
 1.75485741e-21
 1.75485741e-21
 1.75485741e-21
 1.75485741e-21
 1.75485741e-21
 1.75485741e-21
 9.77427882e-18
 9.77427882e-18
 9.77427882e-18
 9.77427882e-18
 9.77427882e-18
 9.77427882e-18
 9.77427882e-18
 2.61656922e-18
 2.61656922e-18
 2.61656922e-18
 2.61656922e-18
 2.61656922e-18
 2.61656922e-18
 2.61656922e-18
 1.97620150e-18
 1.97620150e-18
 1.97620150e-18
 1.97620150e-18
 1.97620150e-18
 1.97620150e-18
 1.97620150e-18
 1.97620150e-18
 1.97620150e-18
 1.97620150e-18
 1.97620150e-18
 1.97620150e-18
 1.97620150e-18
 1.97620150e-18
 1.97620150e-18
 3.31782017e-19
 3.31782017e-19
 3.31782017e-19
 3.31782017e-19
 3.31782017e-19
 3.31782017e-19
 3.31782017e-19
 3.31782017e-19
 3.31782017e-19
 3.31782017e-19
 3.31782017e-19
 2.43160118e-20
 2.43160118e-20
 2.43160118e-20
 4.64818601e-21
 4.64818601e-21
 4.64818601e-21
 4.64818601e-21
 4.64818601e-21
 4.64818601e-21
 2.80631540e-21
 1.33804189e-21
 1.33804189e-21
 1.33804189e-21
 3.47527114e-22
 3.47527114e-22
 3.47527114e-22
 1.06155478e-22
 1.06155478e-22
)
)
1
(
101
(
 4.97246937e-24
 4.97246937e-24
 4.97246937e-24
 4.97246937e-24
 4.97246937e-24
 4.97246937e-24
 4.97246937e-24
 4.97246937e-24
 4.97246937e-24
 4.97246937e-24
 4.97246937e-24
 4.97246937e-24
 4.97246937e-24
 4.97246937e-24
 4.97246937e-24
 4.97246937e-24
 4.97246937e-24
 4.97246937e-24
 4.97246937e-24
 1.75485741e-21
 1.75485741e-21
 1.75485741e-21
 1.75485741e-21
 1.75485741e-21
 1.75485741e-21
 1.75485741e-21
 1.75485741e-21
 1.75485741e-21
 1.75485741e-21
 1.75485741e-21
 1.75485741e-21
 1.75485741e-21
 1.75485741e-21
 1.75485741e-21
 1.75485741e-21
 1.75485741e-21
 1.75485741e-21
 1.75485741e-21
 1.75485741e-21
 1.75485741e-21
 1.75485741e-21
 1.75485741e-21
 9.77427882e-18
 9.77427882e-18
 9.77427882e-18
 9.77427882e-18
 9.77427882e-18
 9.77427882e-18
 9.77427882e-18
 9.77427882e-18
 9.77427882e-18
 2.61656922e-18
 2.61656922e-18
 2.61656922e-18
 2.61656922e-18
 2.61656922e-18
 2.61656922e-18
 2.61656922e-18
 2.61656922e-18
 1.97620150e-18
 1.97620150e-18
 1.97620150e-18
 1.97620150e-18
 1.97620150e-18
 1.97620150e-18
 1.97620150e-18
 1.97620150e-18
 1.97620150e-18
 1.97620150e-18
 1.97620150e-18
 1.97620150e-18
 1.97620150e-18
 1.97620150e-18
 3.31782017e-19
 3.31782017e-19
 3.31782017e-19
 3.31782017e-19
 3.31782017e-19
 3.31782017e-19
 3.31782017e-19
 3.31782017e-19
 3.31782017e-19
 3.31782017e-19
 3.31782017e-19
 2.43160118e-20
 2.43160118e-20
 2.43160118e-20
 4.64818601e-21
 4.64818601e-21
 4.64818601e-21
 4.64818601e-21
 4.64818601e-21
 4.64818601e-21
 2.80631540e-21
 2.80631540e-21
 6.13489826e-22
 6.13489826e-22
 3.47527114e-22
 3.47527114e-22
 3.47527114e-22
 3.47527114e-22
)
)
1
(
101
(
 3.88190654e-23
 3.88190654e-23
 3.88190654e-23
 3.88190654e-23
 3.88190654e-23
 3.88190654e-23
 3.88190654e-23
 3.88190654e-23
 3.88190654e-23
 3.88190654e-23
 3.88190654e-23
 3.88190654e-23
 3.88190654e-23
 3.88190654e-23
 1.75485741e-21
 1.75485741e-21
 1.75485741e-21
 1.75485741e-21
 1.75485741e-21
 1.75485741e-21
 1.75485741e-21
 1.75485741e-21
 1.75485741e-21
 1.75485741e-21
 1.75485741e-21
 1.75485741e-21
 1.75485741e-21
 1.75485741e-21
 1.75485741e-21
 1.75485741e-21
 1.75485741e-21
 1.75485741e-21
 1.75485741e-21
 1.75485741e-21
 1.75485741e-21
 1.75485741e-21
 1.75485741e-21
 1.75485741e-21
 1.75485741e-21
 1.75485741e-21
 1.75485741e-21
 1.75485741e-21
 9.77427882e-18
 9.77427882e-18
 9.77427882e-18
 9.77427882e-18
 9.77427882e-18
 9.77427882e-18
 9.77427882e-18
 9.77427882e-18
 9.77427882e-18
 9.77427882e-18
 2.61656922e-18
 2.61656922e-18
 2.61656922e-18
 2.61656922e-18
 2.61656922e-18
 2.61656922e-18
 2.61656922e-18
 2.61656922e-18
 1.97620150e-18
 1.97620150e-18
 1.97620150e-18
 1.97620150e-18
 1.97620150e-18
 1.97620150e-18
 1.97620150e-18
 1.97620150e-18
 1.97620150e-18
 1.97620150e-18
 1.97620150e-18
 1.97620150e-18
 1.97620150e-18
 1.97620150e-18
 1.97620150e-18
 3.31782017e-19
 3.31782017e-19
 3.31782017e-19
 3.31782017e-19
 3.31782017e-19
 3.31782017e-19
 3.31782017e-19
 3.31782017e-19
 3.31782017e-19
 3.31782017e-19
 2.43160118e-20
 2.43160118e-20
 2.43160118e-20
 2.43160118e-20
 4.64818601e-21
 4.64818601e-21
 4.64818601e-21
 4.64818601e-21
 4.64818601e-21
 2.80631540e-21
 2.80631540e-21
 6.13489826e-22
 6.13489826e-22
 3.47527114e-22
 3.47527114e-22
 3.47527114e-22
)
)
1
(
101
(
 9.19876292e-23
 9.19876292e-23
 9.19876292e-23
 9.19876292e-23
 9.19876292e-23
 9.19876292e-23
 9.19876292e-23
 9.19876292e-23
 9.19876292e-23
 1.75485741e-21
 1.75485741e-21
 1.75485741e-21
 1.75485741e-21
 1.75485741e-21
 1.75485741e-21
 1.75485741e-21
 1.75485741e-21
 1.75485741e-21
 1.75485741e-21
 1.75485741e-21
 1.75485741e-21
 1.75485741e-21
 1.75485741e-21
 1.75485741e-21
 1.75485741e-21
 1.75485741e-21
 1.75485741e-21
 1.75485741e-21
 1.75485741e-21
 1.75485741e-21
 1.75485741e-21
 1.75485741e-21
 1.75485741e-21
 1.75485741e-21
 1.75485741e-21
 1.75485741e-21
 1.75485741e-21
 1.75485741e-21
 1.75485741e-21
 1.75485741e-21
 1.75485741e-21
 1.75485741e-21
 9.77427882e-18
 9.77427882e-18
 9.77427882e-18
 9.77427882e-18
 9.77427882e-18
 9.77427882e-18
 9.77427882e-18
 9.77427882e-18
 9.77427882e-18
 9.77427882e-18
 9.77427882e-18
 9.77427882e-18
 2.61656922e-18
 2.61656922e-18
 2.61656922e-18
 2.61656922e-18
 2.61656922e-18
 2.61656922e-18
 2.61656922e-18
 2.61656922e-18
 1.97620150e-18
 1.97620150e-18
 1.97620150e-18
 1.97620150e-18
 1.97620150e-18
 1.97620150e-18
 1.97620150e-18
 1.97620150e-18
 1.97620150e-18
 1.97620150e-18
 1.97620150e-18
 1.97620150e-18
 1.97620150e-18
 1.97620150e-18
 3.31782017e-19
 3.31782017e-19
 3.31782017e-19
 3.31782017e-19
 3.31782017e-19
 3.31782017e-19
 3.31782017e-19
 3.31782017e-19
 3.31782017e-19
 3.31782017e-19
 2.43160118e-20
 2.43160118e-20
 2.43160118e-20
 2.43160118e-20
 7.84783553e-21
 4.64818601e-21
 4.64818601e-21
 4.64818601e-21
 4.64818601e-21
 2.80631540e-21
 2.80631540e-21
 6.13489826e-22
 6.13489826e-22
 3.47527114e-22
 3.47527114e-22
)
)
1
(
101
(
 2.59290142e-22
 2.59290142e-22
 2.59290142e-22
 2.59290142e-22
 2.59290142e-22
 2.59290142e-22
 1.75485741e-21
 1.75485741e-21
 1.75485741e-21
 1.75485741e-21
 1.75485741e-21
 1.75485741e-21
 1.75485741e-21
 1.75485741e-21
 1.75485741e-21
 1.75485741e-21
 1.75485741e-21
 1.75485741e-21
 1.75485741e-21
 1.75485741e-21
 1.75485741e-21
 1.75485741e-21
 1.75485741e-21
 1.75485741e-21
 1.75485741e-21
 1.75485741e-21
 1.75485741e-21
 1.75485741e-21
 1.75485741e-21
 1.75485741e-21
 1.75485741e-21
 1.75485741e-21
 1.75485741e-21
 1.75485741e-21
 1.75485741e-21
 1.75485741e-21
 1.75485741e-21
 1.75485741e-21
 1.75485741e-21
 1.75485741e-21
 1.75485741e-21
 1.75485741e-21
 9.77427882e-18
 9.77427882e-18
 9.77427882e-18
 9.77427882e-18
 9.77427882e-18
 9.77427882e-18
 9.77427882e-18
 9.77427882e-18
 9.77427882e-18
 9.77427882e-18
 9.77427882e-18
 9.77427882e-18
 9.77427882e-18
 2.61656922e-18
 2.61656922e-18
 2.61656922e-18
 2.61656922e-18
 2.61656922e-18
 2.61656922e-18
 2.61656922e-18
 2.61656922e-18
 1.97620150e-18
 1.97620150e-18
 1.97620150e-18
 1.97620150e-18
 1.97620150e-18
 1.97620150e-18
 1.97620150e-18
 1.97620150e-18
 1.97620150e-18
 1.97620150e-18
 1.97620150e-18
 1.97620150e-18
 1.97620150e-18
 1.97620150e-18
 3.31782017e-19
 3.31782017e-19
 3.31782017e-19
 3.31782017e-19
 3.31782017e-19
 3.31782017e-19
 3.31782017e-19
 3.31782017e-19
 3.31782017e-19
 3.31782017e-19
 2.43160118e-20
 2.43160118e-20
 2.43160118e-20
 2.43160118e-20
 7.84783553e-21
 7.84783553e-21
 3.71190141e-21
 3.71190141e-21
 3.71190141e-21
 2.80631540e-21
 2.80631540e-21
 6.13489826e-22
 6.13489826e-22
 3.47527114e-22
)
)
1
(
101
(
 7.69383796e-22
 7.69383796e-22
 7.69383796e-22
 1.75485741e-21
 1.75485741e-21
 1.75485741e-21
 1.75485741e-21
 1.75485741e-21
 1.75485741e-21
 1.75485741e-21
 1.75485741e-21
 1.75485741e-21
 1.75485741e-21
 1.75485741e-21
 1.75485741e-21
 1.75485741e-21
 1.75485741e-21
 1.75485741e-21
 1.75485741e-21
 1.75485741e-21
 1.75485741e-21
 1.75485741e-21
 1.75485741e-21
 1.75485741e-21
 1.75485741e-21
 1.75485741e-21
 1.75485741e-21
 1.75485741e-21
 1.75485741e-21
 1.75485741e-21
 1.75485741e-21
 1.75485741e-21
 1.75485741e-21
 1.75485741e-21
 1.75485741e-21
 1.75485741e-21
 1.75485741e-21
 1.75485741e-21
 1.75485741e-21
 1.75485741e-21
 1.75485741e-21
 9.45267976e-18
 9.77427882e-18
 9.77427882e-18
 9.77427882e-18
 9.77427882e-18
 9.77427882e-18
 9.77427882e-18
 9.77427882e-18
 9.77427882e-18
 9.77427882e-18
 9.77427882e-18
 9.77427882e-18
 9.77427882e-18
 9.77427882e-18
 9.77427882e-18
 2.61656922e-18
 2.61656922e-18
 2.61656922e-18
 2.61656922e-18
 2.61656922e-18
 2.61656922e-18
 2.61656922e-18
 2.61656922e-18
 2.61656922e-18
 1.97620150e-18
 1.97620150e-18
 1.97620150e-18
 1.97620150e-18
 1.97620150e-18
 1.97620150e-18
 1.97620150e-18
 1.97620150e-18
 1.97620150e-18
 1.97620150e-18
 1.97620150e-18
 1.97620150e-18
 1.97620150e-18
 3.31782017e-19
 3.31782017e-19
 3.31782017e-19
 3.31782017e-19
 3.31782017e-19
 3.31782017e-19
 3.31782017e-19
 3.31782017e-19
 3.31782017e-19
 3.31782017e-19
 2.43160118e-20
 2.43160118e-20
 2.43160118e-20
 2.43160118e-20
 7.84783553e-21
 7.84783553e-21
 3.71190141e-21
 3.71190141e-21
 3.71190141e-21
 3.71190141e-21
 2.80631540e-21
 6.13489826e-22
 6.13489826e-22
)
)
1
(
101
(
 2.45822456e-22
 2.45822456e-22
 1.75485741e-21
 1.75485741e-21
 1.75485741e-21
 1.75485741e-21
 1.75485741e-21
 1.75485741e-21
 1.75485741e-21
 1.75485741e-21
 1.75485741e-21
 1.75485741e-21
 1.75485741e-21
 1.75485741e-21
 1.75485741e-21
 1.75485741e-21
 1.75485741e-21
 1.75485741e-21
 1.75485741e-21
 1.75485741e-21
 1.75485741e-21
 1.75485741e-21
 1.75485741e-21
 1.75485741e-21
 1.75485741e-21
 1.75485741e-21
 1.75485741e-21
 1.75485741e-21
 1.75485741e-21
 1.75485741e-21
 1.75485741e-21
 1.75485741e-21
 1.75485741e-21
 1.75485741e-21
 1.75485741e-21
 1.75485741e-21
 1.75485741e-21
 1.75485741e-21
 1.75485741e-21
 1.75485741e-21
 1.75485741e-21
 9.45267976e-18
 9.45267976e-18
 9.77427882e-18
 9.77427882e-18
 9.77427882e-18
 9.77427882e-18
 9.77427882e-18
 9.77427882e-18
 9.77427882e-18
 9.77427882e-18
 9.77427882e-18
 9.77427882e-18
 9.77427882e-18
 9.77427882e-18
 9.77427882e-18
 9.77427882e-18
 2.61656922e-18
 2.61656922e-18
 2.61656922e-18
 2.61656922e-18
 2.61656922e-18
 2.61656922e-18
 2.61656922e-18
 2.61656922e-18
 2.61656922e-18
 1.97620150e-18
 1.97620150e-18
 1.97620150e-18
 1.97620150e-18
 1.97620150e-18
 1.97620150e-18
 1.97620150e-18
 1.97620150e-18
 1.97620150e-18
 1.97620150e-18
 1.97620150e-18
 1.97620150e-18
 1.97620150e-18
 1.97620150e-18
 3.31782017e-19
 3.31782017e-19
 3.31782017e-19
 3.31782017e-19
 3.31782017e-19
 3.31782017e-19
 3.31782017e-19
 3.31782017e-19
 2.88370701e-20
 2.43160118e-20
 2.43160118e-20
 2.43160118e-20
 2.06241440e-23
 2.06241440e-23
 2.06241440e-23
 3.71190141e-21
 3.71190141e-21
 3.71190141e-21
 3.71190141e-21
 3.71190141e-21
 6.13489826e-22
)
)
1
(
101
(
 8.88219766e-27
 1.75485741e-21
 1.75485741e-21
 1.75485741e-21
 1.75485741e-21
 1.75485741e-21
 1.75485741e-21
 1.75485741e-21
 1.75485741e-21
 1.75485741e-21
 1.75485741e-21
 1.75485741e-21
 1.75485741e-21
 1.75485741e-21
 1.75485741e-21
 1.75485741e-21
 1.75485741e-21
 1.75485741e-21
 1.75485741e-21
 1.75485741e-21
 1.75485741e-21
 1.75485741e-21
 1.75485741e-21
 1.75485741e-21
 1.75485741e-21
 1.75485741e-21
 1.75485741e-21
 1.75485741e-21
 1.75485741e-21
 1.75485741e-21
 1.75485741e-21
 1.75485741e-21
 1.75485741e-21
 1.75485741e-21
 1.75485741e-21
 1.75485741e-21
 1.75485741e-21
 1.75485741e-21
 1.75485741e-21
 1.75485741e-21
 9.45267976e-18
 9.45267976e-18
 9.45267976e-18
 9.45267976e-18
 9.77427882e-18
 9.77427882e-18
 9.77427882e-18
 9.77427882e-18
 9.77427882e-18
 9.77427882e-18
 9.77427882e-18
 9.77427882e-18
 9.77427882e-18
 9.77427882e-18
 9.77427882e-18
 9.77427882e-18
 9.77427882e-18
 9.77427882e-18
 2.61656922e-18
 2.61656922e-18
 2.61656922e-18
 2.61656922e-18
 2.61656922e-18
 2.61656922e-18
 2.61656922e-18
 2.61656922e-18
 2.61656922e-18
 2.61656922e-18
 1.97620150e-18
 1.97620150e-18
 1.97620150e-18
 1.97620150e-18
 1.97620150e-18
 1.97620150e-18
 1.97620150e-18
 1.97620150e-18
 1.97620150e-18
 1.97620150e-18
 1.97620150e-18
 1.97620150e-18
 1.97620150e-18
 2.29959684e-19
 3.31782017e-19
 3.31782017e-19
 3.31782017e-19
 3.31782017e-19
 3.31782017e-19
 3.31782017e-19
 3.31782017e-19
 2.88370701e-20
 2.88370701e-20
 4.60852710e-21
 4.60852710e-21
 2.06241440e-23
 2.06241440e-23
 2.06241440e-23
 2.06241440e-23
 3.71190141e-21
 3.71190141e-21
 3.71190141e-21
 3.71190141e-21
)
)
1
(
101
(
 8.88219766e-27
 5.58455929e-21
 5.58455929e-21
 5.58455929e-21
 5.58455929e-21
 5.58455929e-21
 5.58455929e-21
 5.58455929e-21
 5.58455929e-21
 5.58455929e-21
 5.58455929e-21
 5.58455929e-21
 5.58455929e-21
 5.58455929e-21
 5.58455929e-21
 5.58455929e-21
 5.58455929e-21
 5.58455929e-21
 5.58455929e-21
 5.58455929e-21
 5.58455929e-21
 5.58455929e-21
 5.58455929e-21
 5.58455929e-21
 5.58455929e-21
 5.58455929e-21
 5.58455929e-21
 5.58455929e-21
 5.58455929e-21
 5.58455929e-21
 5.58455929e-21
 5.58455929e-21
 5.58455929e-21
 5.58455929e-21
 5.58455929e-21
 5.58455929e-21
 5.58455929e-21
 5.58455929e-21
 5.58455929e-21
 5.58455929e-21
 9.45267976e-18
 9.45267976e-18
 9.45267976e-18
 9.45267976e-18
 9.45267976e-18
 9.77427882e-18
 9.77427882e-18
 9.77427882e-18
 9.77427882e-18
 9.77427882e-18
 9.77427882e-18
 9.77427882e-18
 9.77427882e-18
 9.77427882e-18
 9.77427882e-18
 9.77427882e-18
 9.77427882e-18
 9.77427882e-18
 9.77427882e-18
 2.61656922e-18
 2.61656922e-18
 2.61656922e-18
 2.61656922e-18
 2.61656922e-18
 2.61656922e-18
 2.61656922e-18
 2.61656922e-18
 2.61656922e-18
 2.61656922e-18
 1.97620150e-18
 1.97620150e-18
 1.97620150e-18
 1.97620150e-18
 1.97620150e-18
 1.97620150e-18
 1.97620150e-18
 1.97620150e-18
 1.97620150e-18
 1.97620150e-18
 1.97620150e-18
 1.97620150e-18
 1.97620150e-18
 2.29959684e-19
 2.29959684e-19
 3.31782017e-19
 3.31782017e-19
 3.31782017e-19
 3.31782017e-19
 3.31782017e-19
 2.88370701e-20
 2.88370701e-20
 2.88370701e-20
 4.60852710e-21
 4.60852710e-21
 2.06241440e-23
 2.06241440e-23
 2.06241440e-23
 2.06241440e-23
 2.06241440e-23
 3.71190141e-21
 3.71190141e-21
)
)
1
(
101
(
 1.56404315e-20
 1.56404315e-20
 1.56404315e-20
 1.56404315e-20
 1.56404315e-20
 1.56404315e-20
 1.56404315e-20
 1.56404315e-20
 1.56404315e-20
 1.56404315e-20
 1.56404315e-20
 1.56404315e-20
 1.56404315e-20
 1.56404315e-20
 1.56404315e-20
 1.56404315e-20
 1.56404315e-20
 1.56404315e-20
 1.56404315e-20
 1.56404315e-20
 1.56404315e-20
 1.56404315e-20
 1.56404315e-20
 1.56404315e-20
 1.56404315e-20
 1.56404315e-20
 1.56404315e-20
 1.56404315e-20
 1.56404315e-20
 1.56404315e-20
 1.56404315e-20
 1.56404315e-20
 1.56404315e-20
 1.56404315e-20
 1.56404315e-20
 1.56404315e-20
 1.56404315e-20
 1.56404315e-20
 1.56404315e-20
 1.56404315e-20
 9.45267976e-18
 9.45267976e-18
 9.45267976e-18
 9.45267976e-18
 9.45267976e-18
 9.45267976e-18
 9.77427882e-18
 9.77427882e-18
 9.77427882e-18
 9.77427882e-18
 9.77427882e-18
 9.77427882e-18
 9.77427882e-18
 9.77427882e-18
 9.77427882e-18
 9.77427882e-18
 9.77427882e-18
 9.77427882e-18
 9.77427882e-18
 9.77427882e-18
 9.77427882e-18
 2.61656922e-18
 2.61656922e-18
 2.61656922e-18
 2.61656922e-18
 2.61656922e-18
 2.61656922e-18
 2.61656922e-18
 2.61656922e-18
 2.61656922e-18
 2.61656922e-18
 1.97620150e-18
 1.97620150e-18
 1.97620150e-18
 1.97620150e-18
 1.97620150e-18
 1.97620150e-18
 1.97620150e-18
 1.97620150e-18
 1.97620150e-18
 1.97620150e-18
 1.97620150e-18
 1.97620150e-18
 2.29959684e-19
 2.29959684e-19
 2.29959684e-19
 3.31782017e-19
 3.31782017e-19
 3.31782017e-19
 3.31782017e-19
 2.88370701e-20
 2.88370701e-20
 2.88370701e-20
 4.60852710e-21
 4.60852710e-21
 2.06241440e-23
 2.06241440e-23
 2.06241440e-23
 2.06241440e-23
 2.06241440e-23
 2.06241440e-23
)
)
1
(
101
(
 3.94067547e-20
 3.94067547e-20
 3.94067547e-20
 3.94067547e-20
 3.94067547e-20
 3.94067547e-20
 3.94067547e-20
 3.94067547e-20
 3.94067547e-20
 3.94067547e-20
 3.94067547e-20
 3.94067547e-20
 3.94067547e-20
 3.94067547e-20
 3.94067547e-20
 3.94067547e-20
 3.94067547e-20
 3.94067547e-20
 3.94067547e-20
 3.94067547e-20
 3.94067547e-20
 3.94067547e-20
 3.94067547e-20
 3.94067547e-20
 3.94067547e-20
 3.94067547e-20
 3.94067547e-20
 3.94067547e-20
 3.94067547e-20
 3.94067547e-20
 3.94067547e-20
 3.94067547e-20
 3.94067547e-20
 3.94067547e-20
 3.94067547e-20
 3.94067547e-20
 3.94067547e-20
 3.94067547e-20
 3.94067547e-20
 9.45267976e-18
 9.45267976e-18
 9.45267976e-18
 9.45267976e-18
 9.45267976e-18
 9.45267976e-18
 9.45267976e-18
 9.45267976e-18
 9.45267976e-18
 9.77427882e-18
 9.77427882e-18
 9.77427882e-18
 9.77427882e-18
 9.77427882e-18
 9.77427882e-18
 9.77427882e-18
 9.77427882e-18
 9.77427882e-18
 9.77427882e-18
 9.77427882e-18
 9.77427882e-18
 9.77427882e-18
 9.77427882e-18
 2.61656922e-18
 2.61656922e-18
 2.61656922e-18
 2.61656922e-18
 2.61656922e-18
 2.61656922e-18
 2.61656922e-18
 2.61656922e-18
 2.61656922e-18
 2.61656922e-18
 1.97620150e-18
 1.97620150e-18
 1.97620150e-18
 1.97620150e-18
 1.97620150e-18
 1.97620150e-18
 1.97620150e-18
 1.97620150e-18
 1.97620150e-18
 1.97620150e-18
 1.97620150e-18
 1.97620150e-18
 2.29959684e-19
 2.29959684e-19
 2.29959684e-19
 2.29959684e-19
 8.98544252e-20
 8.98544252e-20
 8.98544252e-20
 2.88370701e-20
 2.88370701e-20
 2.88370701e-20
 4.60852710e-21
 4.60852710e-21
 2.06241440e-23
 2.06241440e-23
 2.06241440e-23