/*--------------------------------*- C++ -*----------------------------------*\
| =========                 |                                                 |
| \\      /  F ield        | OpenFOAM: The Open Source CFD Toolbox           |
|  \\    /   O peration    | Version:  7                                     |
|   \\  /    A nd          | Web:      http://www.OpenFOAM.com               |
|    \\/     M anipulation |                                                 |
\*---------------------------------------------------------------------------*/

FoamFile
{
    version     2.0;
    format      ascii;
    class       dictionary;
    object      Y_C3H7_table;
}

Y_C3H7_table
2
(
101
(
1
(
101
(
 3.35310192e-26
 3.35310192e-26
 3.35310192e-26
 3.35310192e-26
 3.35310192e-26
 3.35310192e-26
 3.35310192e-26
 3.35310192e-26
 3.35310192e-26
 3.35310192e-26
 3.35310192e-26
 3.35310192e-26
 3.35310192e-26
 3.35310192e-26
 3.35310192e-26
 3.35310192e-26
 3.35310192e-26
 3.35310192e-26
 3.35310192e-26
 3.35310192e-26
 3.35310192e-26
 3.35310192e-26
 3.35310192e-26
 3.35310192e-26
 3.35310192e-26
 3.35310192e-26
 3.35310192e-26
 3.35310192e-26
 3.35310192e-26
 3.35310192e-26
 3.35310192e-26
 3.35310192e-26
 3.35310192e-26
 3.35310192e-26
 3.35310192e-26
 3.35310192e-26
 3.35310192e-26
 3.35310192e-26
 3.35310192e-26
 3.35310192e-26
 3.35310192e-26
 3.35310192e-26
 3.35310192e-26
 3.35310192e-26
 3.35310192e-26
 1.54064976e-08
 1.54064976e-08
 2.17353916e-08
 2.17353916e-08
 2.17353916e-08
 2.17353916e-08
 2.17353916e-08
 2.17353916e-08
 2.17353916e-08
 2.17353916e-08
 2.17353916e-08
 2.17353916e-08
 2.17353916e-08
 2.17353916e-08
 2.17353916e-08
 2.17353916e-08
 2.17353916e-08
 2.17353916e-08
 1.44552508e-08
 1.44552508e-08
 1.44552508e-08
 1.44552508e-08
 1.44552508e-08
 1.44552508e-08
 1.44552508e-08
 1.44552508e-08
 1.44552508e-08
 1.44552508e-08
 1.44552508e-08
 1.44552508e-08
 3.31523829e-09
 3.31523829e-09
 3.31523829e-09
 3.31523829e-09
 3.31523829e-09
 3.31523829e-09
 3.31523829e-09
 2.30657166e-09
 2.30657166e-09
 2.30657166e-09
 2.30657166e-09
 2.30657166e-09
 2.30657166e-09
 1.09735480e-09
 1.09735480e-09
 1.09735480e-09
 1.09735480e-09
 1.09735480e-09
 1.09735480e-09
 1.09735480e-09
 1.13281177e-10
 1.13281177e-10
 1.13281177e-10
 1.13281177e-10
 1.13281177e-10
 6.31679372e-13
)
)
1
(
101
(
 5.60737740e-24
 5.60737740e-24
 5.60737740e-24
 5.60737740e-24
 5.60737740e-24
 5.60737740e-24
 5.60737740e-24
 5.60737740e-24
 5.60737740e-24
 5.60737740e-24
 5.60737740e-24
 5.60737740e-24
 5.60737740e-24
 5.60737740e-24
 5.60737740e-24
 5.60737740e-24
 5.60737740e-24
 5.60737740e-24
 5.60737740e-24
 5.60737740e-24
 5.60737740e-24
 5.60737740e-24
 5.60737740e-24
 5.60737740e-24
 5.60737740e-24
 5.60737740e-24
 5.60737740e-24
 5.60737740e-24
 5.60737740e-24
 5.60737740e-24
 5.60737740e-24
 5.60737740e-24
 5.60737740e-24
 5.60737740e-24
 5.60737740e-24
 5.60737740e-24
 5.60737740e-24
 5.60737740e-24
 5.60737740e-24
 5.60737740e-24
 5.60737740e-24
 5.60737740e-24
 5.60737740e-24
 5.60737740e-24
 5.60737740e-24
 1.54064976e-08
 1.54064976e-08
 1.54064976e-08
 2.17353916e-08
 2.17353916e-08
 2.17353916e-08
 2.17353916e-08
 2.17353916e-08
 2.17353916e-08
 2.17353916e-08
 2.17353916e-08
 2.17353916e-08
 2.17353916e-08
 2.17353916e-08
 2.17353916e-08
 2.17353916e-08
 2.17353916e-08
 2.17353916e-08
 2.17353916e-08
 2.17353916e-08
 1.44552508e-08
 1.44552508e-08
 1.44552508e-08
 1.44552508e-08
 1.44552508e-08
 1.44552508e-08
 1.44552508e-08
 1.44552508e-08
 1.44552508e-08
 1.44552508e-08
 1.44552508e-08
 1.44552508e-08
 3.31523829e-09
 3.31523829e-09
 3.31523829e-09
 3.31523829e-09
 3.31523829e-09
 3.31523829e-09
 2.30657166e-09
 2.30657166e-09
 2.30657166e-09
 2.30657166e-09
 2.30657166e-09
 2.30657166e-09
 2.30657166e-09
 1.09735480e-09
 1.09735480e-09
 1.09735480e-09
 1.09735480e-09
 1.09735480e-09
 1.09735480e-09
 4.73680411e-10
 1.13281177e-10
 1.13281177e-10
 1.13281177e-10
 3.50954236e-11
)
)
1
(
101
(
 2.67652956e-23
 2.67652956e-23
 2.67652956e-23
 2.67652956e-23
 2.67652956e-23
 2.67652956e-23
 2.67652956e-23
 2.67652956e-23
 2.67652956e-23
 2.67652956e-23
 2.67652956e-23
 2.67652956e-23
 2.67652956e-23
 2.67652956e-23
 2.67652956e-23
 2.67652956e-23
 2.67652956e-23
 2.67652956e-23
 2.67652956e-23
 2.67652956e-23
 2.67652956e-23
 2.67652956e-23
 2.67652956e-23
 2.67652956e-23
 2.67652956e-23
 2.67652956e-23
 2.67652956e-23
 2.67652956e-23
 2.67652956e-23
 2.67652956e-23
 2.67652956e-23
 2.67652956e-23
 2.67652956e-23
 2.67652956e-23
 2.67652956e-23
 2.67652956e-23
 2.67652956e-23
 2.67652956e-23
 2.67652956e-23
 2.67652956e-23
 2.67652956e-23
 2.67652956e-23
 2.67652956e-23
 2.67652956e-23
 1.54064976e-08
 1.54064976e-08
 1.54064976e-08
 1.54064976e-08
 1.54064976e-08
 1.54064976e-08
 2.17353916e-08
 2.17353916e-08
 2.17353916e-08
 2.17353916e-08
 2.17353916e-08
 2.17353916e-08
 2.17353916e-08
 2.17353916e-08
 2.17353916e-08
 2.17353916e-08
 2.17353916e-08
 2.17353916e-08
 2.17353916e-08
 2.17353916e-08
 2.17353916e-08
 2.17353916e-08
 1.44552508e-08
 1.44552508e-08
 1.44552508e-08
 1.44552508e-08
 1.44552508e-08
 1.44552508e-08
 1.44552508e-08
 1.44552508e-08
 1.44552508e-08
 1.44552508e-08
 1.44552508e-08
 1.44552508e-08
 3.31523829e-09
 3.31523829e-09
 3.31523829e-09
 3.31523829e-09
 3.31523829e-09
 3.31523829e-09
 3.31523829e-09
 2.30657166e-09
 2.30657166e-09
 2.30657166e-09
 2.30657166e-09
 2.30657166e-09
 2.30657166e-09
 1.09735480e-09
 1.09735480e-09
 1.09735480e-09
 1.09735480e-09
 1.09735480e-09
 1.09735480e-09
 4.73680411e-10
 4.73680411e-10
 1.85623869e-10
 1.85623869e-10
)
)
1
(
101
(
 4.69078742e-23
 4.69078742e-23
 4.69078742e-23
 4.69078742e-23
 4.69078742e-23
 4.69078742e-23
 4.69078742e-23
 4.69078742e-23
 4.69078742e-23
 4.69078742e-23
 4.69078742e-23
 4.69078742e-23
 4.69078742e-23
 4.69078742e-23
 4.69078742e-23
 4.69078742e-23
 4.69078742e-23
 4.69078742e-23
 4.69078742e-23
 4.69078742e-23
 4.69078742e-23
 4.69078742e-23
 4.69078742e-23
 4.69078742e-23
 4.69078742e-23
 4.69078742e-23
 4.69078742e-23
 4.69078742e-23
 4.69078742e-23
 4.69078742e-23
 4.69078742e-23
 4.69078742e-23
 4.69078742e-23
 4.69078742e-23
 4.69078742e-23
 4.69078742e-23
 4.69078742e-23
 4.69078742e-23
 4.69078742e-23
 4.69078742e-23
 4.69078742e-23
 4.69078742e-23
 4.69078742e-23
 4.69078742e-23
 1.71101698e-08
 1.54064976e-08
 1.54064976e-08
 1.54064976e-08
 1.54064976e-08
 1.54064976e-08
 1.54064976e-08
 2.17353916e-08
 2.17353916e-08
 2.17353916e-08
 2.17353916e-08
 2.17353916e-08
 2.17353916e-08
 2.17353916e-08
 2.17353916e-08
 2.17353916e-08
 2.17353916e-08
 2.17353916e-08
 2.17353916e-08
 2.17353916e-08
 2.17353916e-08
 2.17353916e-08
 2.17353916e-08
 1.44552508e-08
 1.44552508e-08
 1.44552508e-08
 1.44552508e-08
 1.44552508e-08
 1.44552508e-08
 1.44552508e-08
 1.44552508e-08
 1.44552508e-08
 1.44552508e-08
 1.44552508e-08
 1.44552508e-08
 5.03986450e-09
 3.31523829e-09
 3.31523829e-09
 3.31523829e-09
 3.31523829e-09
 3.31523829e-09
 3.31523829e-09
 2.30657166e-09
 2.30657166e-09
 2.30657166e-09
 2.30657166e-09
 2.30657166e-09
 2.30657166e-09
 2.30657166e-09
 1.09735480e-09
 1.09735480e-09
 1.09735480e-09
 1.09735480e-09
 1.09735480e-09
 4.73680411e-10
 1.15485083e-10
 1.15485083e-10
)
)
1
(
101
(
 9.75665616e-23
 9.75665616e-23
 9.75665616e-23
 9.75665616e-23
 9.75665616e-23
 9.75665616e-23
 9.75665616e-23
 9.75665616e-23
 9.75665616e-23
 9.75665616e-23
 9.75665616e-23
 9.75665616e-23
 9.75665616e-23
 9.75665616e-23
 9.75665616e-23
 9.75665616e-23
 9.75665616e-23
 9.75665616e-23
 9.75665616e-23
 9.75665616e-23
 9.75665616e-23
 9.75665616e-23
 9.75665616e-23
 9.75665616e-23
 9.75665616e-23
 9.75665616e-23
 9.75665616e-23
 9.75665616e-23
 9.75665616e-23
 9.75665616e-23
 9.75665616e-23
 9.75665616e-23
 9.75665616e-23
 9.75665616e-23
 9.75665616e-23
 9.75665616e-23
 9.75665616e-23
 9.75665616e-23
 9.75665616e-23
 9.75665616e-23
 9.75665616e-23
 9.75665616e-23
 9.75665616e-23
 9.75665616e-23
 1.71101698e-08
 1.71101698e-08
 1.71101698e-08
 1.54064976e-08
 1.54064976e-08
 1.54064976e-08
 1.54064976e-08
 1.54064976e-08
 1.54064976e-08
 2.17353916e-08
 2.17353916e-08
 2.17353916e-08
 2.17353916e-08
 2.17353916e-08
 2.17353916e-08
 2.17353916e-08
 2.17353916e-08
 2.17353916e-08
 2.17353916e-08
 2.17353916e-08
 2.17353916e-08
 2.17353916e-08
 2.17353916e-08
 2.17353916e-08
 1.44552508e-08
 1.44552508e-08
 1.44552508e-08
 1.44552508e-08
 1.44552508e-08
 1.44552508e-08
 1.44552508e-08
 1.44552508e-08
 1.44552508e-08
 1.44552508e-08
 1.44552508e-08
 1.44552508e-08
 5.03986450e-09
 3.31523829e-09
 3.31523829e-09
 3.31523829e-09
 3.31523829e-09
 3.31523829e-09
 3.31523829e-09
 3.31523829e-09
 2.30657166e-09
 2.30657166e-09
 2.30657166e-09
 2.30657166e-09
 2.30657166e-09
 2.30657166e-09
 1.12344800e-09
 1.09735480e-09
 1.09735480e-09
 1.09735480e-09
 4.09126696e-10
 4.09126696e-10
 1.15485083e-10
)
)
1
(
101
(
 1.03893782e-22
 1.03893782e-22
 1.03893782e-22
 1.03893782e-22
 1.03893782e-22
 1.03893782e-22
 1.03893782e-22
 1.03893782e-22
 1.03893782e-22
 1.03893782e-22
 1.03893782e-22
 1.03893782e-22
 1.03893782e-22
 1.03893782e-22
 1.03893782e-22
 1.03893782e-22
 1.03893782e-22
 1.03893782e-22
 1.03893782e-22
 1.03893782e-22
 1.03893782e-22
 1.03893782e-22
 1.03893782e-22
 1.03893782e-22
 1.03893782e-22
 1.03893782e-22
 1.03893782e-22
 1.03893782e-22
 1.03893782e-22
 1.03893782e-22
 1.03893782e-22
 1.03893782e-22
 1.03893782e-22
 1.03893782e-22
 1.03893782e-22
 1.03893782e-22
 1.03893782e-22
 1.03893782e-22
 1.03893782e-22
 1.03893782e-22
 1.03893782e-22
 1.03893782e-22
 4.86203718e-22
 1.71101698e-08
 1.71101698e-08
 1.71101698e-08
 1.71101698e-08
 1.71101698e-08
 1.54064976e-08
 1.54064976e-08
 1.54064976e-08
 1.54064976e-08
 1.54064976e-08
 1.54064976e-08
 2.17353916e-08
 2.17353916e-08
 2.17353916e-08
 2.17353916e-08
 2.17353916e-08
 2.17353916e-08
 2.17353916e-08
 2.17353916e-08
 2.17353916e-08
 2.17353916e-08
 2.17353916e-08
 2.17353916e-08
 2.17353916e-08
 2.17353916e-08
 2.17353916e-08
 2.17353916e-08
 1.44552508e-08
 1.44552508e-08
 1.44552508e-08
 1.44552508e-08
 1.44552508e-08
 1.44552508e-08
 1.44552508e-08
 1.44552508e-08
 1.44552508e-08
 1.44552508e-08
 1.44552508e-08
 5.03986450e-09
 5.03986450e-09
 3.31523829e-09
 3.31523829e-09
 3.31523829e-09
 3.31523829e-09
 3.31523829e-09
 3.31523829e-09
 2.30657166e-09
 2.30657166e-09
 2.30657166e-09
 2.30657166e-09
 2.30657166e-09
 2.30657166e-09
 1.12344800e-09
 1.12344800e-09
 7.76043550e-10
 7.76043550e-10
 4.09126696e-10
 4.09126696e-10
)
)
1
(
101
(
 3.04925720e-22
 3.04925720e-22
 3.04925720e-22
 3.04925720e-22
 3.04925720e-22
 3.04925720e-22
 3.04925720e-22
 3.04925720e-22
 3.04925720e-22
 3.04925720e-22
 3.04925720e-22
 3.04925720e-22
 3.04925720e-22
 3.04925720e-22
 3.04925720e-22
 3.04925720e-22
 3.04925720e-22
 3.04925720e-22
 3.04925720e-22
 3.04925720e-22
 3.04925720e-22
 3.04925720e-22
 3.04925720e-22
 3.04925720e-22
 3.04925720e-22
 3.04925720e-22
 3.04925720e-22
 3.04925720e-22
 3.04925720e-22
 3.04925720e-22
 3.04925720e-22
 3.04925720e-22
 3.04925720e-22
 4.86203718e-22
 4.86203718e-22
 4.86203718e-22
 4.86203718e-22
 4.86203718e-22
 4.86203718e-22
 4.86203718e-22
 4.86203718e-22
 4.86203718e-22
 4.86203718e-22
 1.71101698e-08
 1.71101698e-08
 1.71101698e-08
 1.71101698e-08
 1.71101698e-08
 1.71101698e-08
 1.54064976e-08
 1.54064976e-08
 1.54064976e-08
 1.54064976e-08
 1.54064976e-08
 1.54064976e-08
 1.54064976e-08
 2.17353916e-08
 2.17353916e-08
 2.17353916e-08
 2.17353916e-08
 2.17353916e-08
 2.17353916e-08
 2.17353916e-08
 2.17353916e-08
 2.17353916e-08
 2.17353916e-08
 2.17353916e-08
 2.17353916e-08
 2.17353916e-08
 2.17353916e-08
 2.17353916e-08
 1.44552508e-08
 1.44552508e-08
 1.44552508e-08
 1.44552508e-08
 1.44552508e-08
 1.44552508e-08
 1.44552508e-08
 1.44552508e-08
 1.44552508e-08
 1.44552508e-08
 1.44552508e-08
 5.03986450e-09
 5.03986450e-09
 3.31523829e-09
 3.31523829e-09
 3.31523829e-09
 3.31523829e-09
 3.31523829e-09
 3.31523829e-09
 3.31523829e-09
 2.30657166e-09
 2.30657166e-09
 2.30657166e-09
 2.30657166e-09
 2.30657166e-09
 1.12344800e-09
 1.12344800e-09
 7.76043550e-10
 7.76043550e-10
 4.09126696e-10
)
)
1
(
101
(
 2.83405849e-22
 2.83405849e-22
 2.83405849e-22
 2.83405849e-22
 2.83405849e-22
 2.83405849e-22
 2.83405849e-22
 2.83405849e-22
 2.83405849e-22
 2.83405849e-22
 2.83405849e-22
 2.83405849e-22
 2.83405849e-22
 2.83405849e-22
 2.83405849e-22
 2.83405849e-22
 2.83405849e-22
 2.83405849e-22
 2.83405849e-22
 2.83405849e-22
 2.83405849e-22
 2.83405849e-22
 2.83405849e-22
 2.83405849e-22
 2.83405849e-22
 2.83405849e-22
 4.86203718e-22
 4.86203718e-22
 4.86203718e-22
 4.86203718e-22
 4.86203718e-22
 4.86203718e-22
 4.86203718e-22
 4.86203718e-22
 4.86203718e-22
 4.86203718e-22
 4.86203718e-22
 4.86203718e-22
 4.86203718e-22
 4.86203718e-22
 4.86203718e-22
 4.86203718e-22
 4.86203718e-22
 1.71101698e-08
 1.71101698e-08
 1.71101698e-08
 1.71101698e-08
 1.71101698e-08
 1.71101698e-08
 1.71101698e-08
 1.54064976e-08
 1.54064976e-08
 1.54064976e-08
 1.54064976e-08
 1.54064976e-08
 1.54064976e-08
 1.54064976e-08
 2.17353916e-08
 2.17353916e-08
 2.17353916e-08
 2.17353916e-08
 2.17353916e-08
 2.17353916e-08
 2.17353916e-08
 2.17353916e-08
 2.17353916e-08
 2.17353916e-08
 2.17353916e-08
 2.17353916e-08
 2.17353916e-08
 2.17353916e-08
 2.17353916e-08
 1.44552508e-08
 1.44552508e-08
 1.44552508e-08
 1.44552508e-08
 1.44552508e-08
 1.44552508e-08
 1.44552508e-08
 1.44552508e-08
 1.44552508e-08
 1.44552508e-08
 1.44552508e-08
 5.03986450e-09
 5.03986450e-09
 5.03986450e-09
 3.31523829e-09
 3.31523829e-09
 3.31523829e-09
 3.31523829e-09
 3.31523829e-09
 3.31523829e-09
 2.60051990e-09
 2.30657166e-09
 2.30657166e-09
 2.30657166e-09
 1.11422726e-09
 1.11422726e-09
 1.11422726e-09
 7.76043550e-10
 7.76043550e-10
)
)
1
(
101
(
 3.93792842e-22
 3.93792842e-22
 3.93792842e-22
 3.93792842e-22
 3.93792842e-22
 3.93792842e-22
 3.93792842e-22
 3.93792842e-22
 3.93792842e-22
 3.93792842e-22
 3.93792842e-22
 3.93792842e-22
 3.93792842e-22
 3.93792842e-22
 3.93792842e-22
 3.93792842e-22
 3.93792842e-22
 3.93792842e-22
 3.93792842e-22
 4.86203718e-22
 4.86203718e-22
 4.86203718e-22
 4.86203718e-22
 4.86203718e-22
 4.86203718e-22
 4.86203718e-22
 4.86203718e-22
 4.86203718e-22
 4.86203718e-22
 4.86203718e-22
 4.86203718e-22
 4.86203718e-22
 4.86203718e-22
 4.86203718e-22
 4.86203718e-22
 4.86203718e-22
 4.86203718e-22
 4.86203718e-22
 4.86203718e-22
 4.86203718e-22
 4.86203718e-22
 4.86203718e-22
 1.71101698e-08
 1.71101698e-08
 1.71101698e-08
 1.71101698e-08
 1.71101698e-08
 1.71101698e-08
 1.71101698e-08
 1.71101698e-08
 1.71101698e-08
 1.54064976e-08
 1.54064976e-08
 1.54064976e-08
 1.54064976e-08
 1.54064976e-08
 1.54064976e-08
 1.54064976e-08
 1.54064976e-08
 2.17353916e-08
 2.17353916e-08
 2.17353916e-08
 2.17353916e-08
 2.17353916e-08
 2.17353916e-08
 2.17353916e-08
 2.17353916e-08
 2.17353916e-08
 2.17353916e-08
 2.17353916e-08
 2.17353916e-08
 2.17353916e-08
 2.17353916e-08
 1.44552508e-08
 1.44552508e-08
 1.44552508e-08
 1.44552508e-08
 1.44552508e-08
 1.44552508e-08
 1.44552508e-08
 1.44552508e-08
 1.44552508e-08
 1.44552508e-08
 1.44552508e-08
 5.03986450e-09
 5.03986450e-09
 5.03986450e-09
 3.31523829e-09
 3.31523829e-09
 3.31523829e-09
 3.31523829e-09
 3.31523829e-09
 3.31523829e-09
 2.60051990e-09
 2.60051990e-09
 1.28701902e-09
 1.28701902e-09
 1.11422726e-09
 1.11422726e-09
 1.11422726e-09
 1.11422726e-09
)
)
1
(
101
(
 1.18725361e-21
 1.18725361e-21
 1.18725361e-21
 1.18725361e-21
 1.18725361e-21
 1.18725361e-21
 1.18725361e-21
 1.18725361e-21
 1.18725361e-21
 1.18725361e-21
 1.18725361e-21
 1.18725361e-21
 1.18725361e-21
 1.18725361e-21
 4.86203718e-22
 4.86203718e-22
 4.86203718e-22
 4.86203718e-22
 4.86203718e-22
 4.86203718e-22
 4.86203718e-22
 4.86203718e-22
 4.86203718e-22
 4.86203718e-22
 4.86203718e-22
 4.86203718e-22
 4.86203718e-22
 4.86203718e-22
 4.86203718e-22
 4.86203718e-22
 4.86203718e-22
 4.86203718e-22
 4.86203718e-22
 4.86203718e-22
 4.86203718e-22
 4.86203718e-22
 4.86203718e-22
 4.86203718e-22
 4.86203718e-22
 4.86203718e-22
 4.86203718e-22
 4.86203718e-22
 1.71101698e-08
 1.71101698e-08
 1.71101698e-08
 1.71101698e-08
 1.71101698e-08
 1.71101698e-08
 1.71101698e-08
 1.71101698e-08
 1.71101698e-08
 1.71101698e-08
 1.54064976e-08
 1.54064976e-08
 1.54064976e-08
 1.54064976e-08
 1.54064976e-08
 1.54064976e-08
 1.54064976e-08
 1.54064976e-08
 2.17353916e-08
 2.17353916e-08
 2.17353916e-08
 2.17353916e-08
 2.17353916e-08
 2.17353916e-08
 2.17353916e-08
 2.17353916e-08
 2.17353916e-08
 2.17353916e-08
 2.17353916e-08
 2.17353916e-08
 2.17353916e-08
 2.17353916e-08
 2.17353916e-08
 1.44552508e-08
 1.44552508e-08
 1.44552508e-08
 1.44552508e-08
 1.44552508e-08
 1.44552508e-08
 1.44552508e-08
 1.44552508e-08
 1.44552508e-08
 1.44552508e-08
 5.03986450e-09
 5.03986450e-09
 5.03986450e-09
 5.03986450e-09
 3.31523829e-09
 3.31523829e-09
 3.31523829e-09
 3.31523829e-09
 3.31523829e-09
 2.60051990e-09
 2.60051990e-09
 1.28701902e-09
 1.28701902e-09
 1.11422726e-09
 1.11422726e-09
 1.11422726e-09
)
)
1
(
101
(
 1.00838786e-21
 1.00838786e-21
 1.00838786e-21
 1.00838786e-21
 1.00838786e-21
 1.00838786e-21
 1.00838786e-21
 1.00838786e-21
 1.00838786e-21
 4.86203718e-22
 4.86203718e-22
 4.86203718e-22
 4.86203718e-22
 4.86203718e-22
 4.86203718e-22
 4.86203718e-22
 4.86203718e-22
 4.86203718e-22
 4.86203718e-22
 4.86203718e-22
 4.86203718e-22
 4.86203718e-22
 4.86203718e-22
 4.86203718e-22
 4.86203718e-22
 4.86203718e-22
 4.86203718e-22
 4.86203718e-22
 4.86203718e-22
 4.86203718e-22
 4.86203718e-22
 4.86203718e-22
 4.86203718e-22
 4.86203718e-22
 4.86203718e-22
 4.86203718e-22
 4.86203718e-22
 4.86203718e-22
 4.86203718e-22
 4.86203718e-22
 4.86203718e-22
 4.86203718e-22
 1.71101698e-08
 1.71101698e-08
 1.71101698e-08
 1.71101698e-08
 1.71101698e-08
 1.71101698e-08
 1.71101698e-08
 1.71101698e-08
 1.71101698e-08
 1.71101698e-08
 1.71101698e-08
 1.71101698e-08
 1.54064976e-08
 1.54064976e-08
 1.54064976e-08
 1.54064976e-08
 1.54064976e-08
 1.54064976e-08
 1.54064976e-08
 1.54064976e-08
 2.17353916e-08
 2.17353916e-08
 2.17353916e-08
 2.17353916e-08
 2.17353916e-08
 2.17353916e-08
 2.17353916e-08
 2.17353916e-08
 2.17353916e-08
 2.17353916e-08
 2.17353916e-08
 2.17353916e-08
 2.17353916e-08
 2.17353916e-08
 1.44552508e-08
 1.44552508e-08
 1.44552508e-08
 1.44552508e-08
 1.44552508e-08
 1.44552508e-08
 1.44552508e-08
 1.44552508e-08
 1.44552508e-08
 1.44552508e-08
 5.03986450e-09
 5.03986450e-09
 5.03986450e-09
 5.03986450e-09
 3.43347884e-09
 3.31523829e-09
 3.31523829e-09
 3.31523829e-09
 3.31523829e-09
 2.60051990e-09
 2.60051990e-09
 1.28701902e-09
 1.28701902e-09
 1.11422726e-09
 1.11422726e-09
)
)
1
(
101
(
 1.39716215e-21
 1.39716215e-21
 1.39716215e-21
 1.39716215e-21
 1.39716215e-21
 1.39716215e-21
 4.86203718e-22
 4.86203718e-22
 4.86203718e-22
 4.86203718e-22
 4.86203718e-22
 4.86203718e-22
 4.86203718e-22
 4.86203718e-22
 4.86203718e-22
 4.86203718e-22
 4.86203718e-22
 4.86203718e-22
 4.86203718e-22
 4.86203718e-22
 4.86203718e-22
 4.86203718e-22
 4.86203718e-22
 4.86203718e-22
 4.86203718e-22
 4.86203718e-22
 4.86203718e-22
 4.86203718e-22
 4.86203718e-22
 4.86203718e-22
 4.86203718e-22
 4.86203718e-22
 4.86203718e-22
 4.86203718e-22
 4.86203718e-22
 4.86203718e-22
 4.86203718e-22
 4.86203718e-22
 4.86203718e-22
 4.86203718e-22
 4.86203718e-22
 4.86203718e-22
 1.71101698e-08
 1.71101698e-08
 1.71101698e-08
 1.71101698e-08
 1.71101698e-08
 1.71101698e-08
 1.71101698e-08
 1.71101698e-08
 1.71101698e-08
 1.71101698e-08
 1.71101698e-08
 1.71101698e-08
 1.71101698e-08
 1.54064976e-08
 1.54064976e-08
 1.54064976e-08
 1.54064976e-08
 1.54064976e-08
 1.54064976e-08
 1.54064976e-08
 1.54064976e-08
 2.17353916e-08
 2.17353916e-08
 2.17353916e-08
 2.17353916e-08
 2.17353916e-08
 2.17353916e-08
 2.17353916e-08
 2.17353916e-08
 2.17353916e-08
 2.17353916e-08
 2.17353916e-08
 2.17353916e-08
 2.17353916e-08
 2.17353916e-08
 1.44552508e-08
 1.44552508e-08
 1.44552508e-08
 1.44552508e-08
 1.44552508e-08
 1.44552508e-08
 1.44552508e-08
 1.44552508e-08
 1.44552508e-08
 1.44552508e-08
 5.03986450e-09
 5.03986450e-09
 5.03986450e-09
 5.03986450e-09
 3.43347884e-09
 3.43347884e-09
 2.09343081e-09
 2.09343081e-09
 2.09343081e-09
 2.60051990e-09
 2.60051990e-09
 1.28701902e-09
 1.28701902e-09
 1.11422726e-09
)
)
1
(
101
(
 2.05592573e-21
 2.05592573e-21
 2.05592573e-21
 4.86203718e-22
 4.86203718e-22
 4.86203718e-22
 4.86203718e-22
 4.86203718e-22
 4.86203718e-22
 4.86203718e-22
 4.86203718e-22
 4.86203718e-22
 4.86203718e-22
 4.86203718e-22
 4.86203718e-22
 4.86203718e-22
 4.86203718e-22
 4.86203718e-22
 4.86203718e-22
 4.86203718e-22
 4.86203718e-22
 4.86203718e-22
 4.86203718e-22
 4.86203718e-22
 4.86203718e-22
 4.86203718e-22
 4.86203718e-22
 4.86203718e-22
 4.86203718e-22
 4.86203718e-22
 4.86203718e-22
 4.86203718e-22
 4.86203718e-22
 4.86203718e-22
 4.86203718e-22
 4.86203718e-22
 4.86203718e-22
 4.86203718e-22
 4.86203718e-22
 4.86203718e-22
 4.86203718e-22
 1.09486465e-08
 1.71101698e-08
 1.71101698e-08
 1.71101698e-08
 1.71101698e-08
 1.71101698e-08
 1.71101698e-08
 1.71101698e-08
 1.71101698e-08
 1.71101698e-08
 1.71101698e-08
 1.71101698e-08
 1.71101698e-08
 1.71101698e-08
 1.71101698e-08
 1.54064976e-08
 1.54064976e-08
 1.54064976e-08
 1.54064976e-08
 1.54064976e-08
 1.54064976e-08
 1.54064976e-08
 1.54064976e-08
 1.54064976e-08
 2.17353916e-08
 2.17353916e-08
 2.17353916e-08
 2.17353916e-08
 2.17353916e-08
 2.17353916e-08
 2.17353916e-08
 2.17353916e-08
 2.17353916e-08
 2.17353916e-08
 2.17353916e-08
 2.17353916e-08
 2.17353916e-08
 1.44552508e-08
 1.44552508e-08
 1.44552508e-08
 1.44552508e-08
 1.44552508e-08
 1.44552508e-08
 1.44552508e-08
 1.44552508e-08
 1.44552508e-08
 1.44552508e-08
 5.03986450e-09
 5.03986450e-09
 5.03986450e-09
 5.03986450e-09
 3.43347884e-09
 3.43347884e-09
 2.09343081e-09
 2.09343081e-09
 2.09343081e-09
 2.09343081e-09
 2.60051990e-09
 1.28701902e-09
 1.28701902e-09
)
)
1
(
101
(
 1.40440844e-22
 1.40440844e-22
 4.86203718e-22
 4.86203718e-22
 4.86203718e-22
 4.86203718e-22
 4.86203718e-22
 4.86203718e-22
 4.86203718e-22
 4.86203718e-22
 4.86203718e-22
 4.86203718e-22
 4.86203718e-22
 4.86203718e-22
 4.86203718e-22
 4.86203718e-22
 4.86203718e-22
 4.86203718e-22
 4.86203718e-22
 4.86203718e-22
 4.86203718e-22
 4.86203718e-22
 4.86203718e-22
 4.86203718e-22
 4.86203718e-22
 4.86203718e-22
 4.86203718e-22
 4.86203718e-22
 4.86203718e-22
 4.86203718e-22
 4.86203718e-22
 4.86203718e-22
 4.86203718e-22
 4.86203718e-22
 4.86203718e-22
 4.86203718e-22
 4.86203718e-22
 4.86203718e-22
 4.86203718e-22
 4.86203718e-22
 4.86203718e-22
 1.09486465e-08
 1.09486465e-08
 1.71101698e-08
 1.71101698e-08
 1.71101698e-08
 1.71101698e-08
 1.71101698e-08
 1.71101698e-08
 1.71101698e-08
 1.71101698e-08
 1.71101698e-08
 1.71101698e-08
 1.71101698e-08
 1.71101698e-08
 1.71101698e-08
 1.71101698e-08
 1.54064976e-08
 1.54064976e-08
 1.54064976e-08
 1.54064976e-08
 1.54064976e-08
 1.54064976e-08
 1.54064976e-08
 1.54064976e-08
 1.54064976e-08
 2.17353916e-08
 2.17353916e-08
 2.17353916e-08
 2.17353916e-08
 2.17353916e-08
 2.17353916e-08
 2.17353916e-08
 2.17353916e-08
 2.17353916e-08
 2.17353916e-08
 2.17353916e-08
 2.17353916e-08
 2.17353916e-08
 2.17353916e-08
 1.44552508e-08
 1.44552508e-08
 1.44552508e-08
 1.44552508e-08
 1.44552508e-08
 1.44552508e-08
 1.44552508e-08
 1.44552508e-08
 4.56752045e-09
 5.03986450e-09
 5.03986450e-09
 5.03986450e-09
 8.98063761e-10
 8.98063761e-10
 8.98063761e-10
 2.09343081e-09
 2.09343081e-09
 2.09343081e-09
 2.09343081e-09
 2.09343081e-09
 1.28701902e-09
)
)
1
(
101
(
 4.78355354e-25
 4.86203718e-22
 4.86203718e-22
 4.86203718e-22
 4.86203718e-22
 4.86203718e-22
 4.86203718e-22
 4.86203718e-22
 4.86203718e-22
 4.86203718e-22
 4.86203718e-22
 4.86203718e-22
 4.86203718e-22
 4.86203718e-22
 4.86203718e-22
 4.86203718e-22
 4.86203718e-22
 4.86203718e-22
 4.86203718e-22
 4.86203718e-22
 4.86203718e-22
 4.86203718e-22
 4.86203718e-22
 4.86203718e-22
 4.86203718e-22
 4.86203718e-22
 4.86203718e-22
 4.86203718e-22
 4.86203718e-22
 4.86203718e-22
 4.86203718e-22
 4.86203718e-22
 4.86203718e-22
 4.86203718e-22
 4.86203718e-22
 4.86203718e-22
 4.86203718e-22
 4.86203718e-22
 4.86203718e-22
 4.86203718e-22
 1.09486465e-08
 1.09486465e-08
 1.09486465e-08
 1.09486465e-08
 1.71101698e-08
 1.71101698e-08
 1.71101698e-08
 1.71101698e-08
 1.71101698e-08
 1.71101698e-08
 1.71101698e-08
 1.71101698e-08
 1.71101698e-08
 1.71101698e-08
 1.71101698e-08
 1.71101698e-08
 1.71101698e-08
 1.71101698e-08
 1.54064976e-08
 1.54064976e-08
 1.54064976e-08
 1.54064976e-08
 1.54064976e-08
 1.54064976e-08
 1.54064976e-08
 1.54064976e-08
 1.54064976e-08
 1.54064976e-08
 2.17353916e-08
 2.17353916e-08
 2.17353916e-08
 2.17353916e-08
 2.17353916e-08
 2.17353916e-08
 2.17353916e-08
 2.17353916e-08
 2.17353916e-08
 2.17353916e-08
 2.17353916e-08
 2.17353916e-08
 2.17353916e-08
 9.59465265e-09
 1.44552508e-08
 1.44552508e-08
 1.44552508e-08
 1.44552508e-08
 1.44552508e-08
 1.44552508e-08
 1.44552508e-08
 4.56752045e-09
 4.56752045e-09
 2.81339175e-09
 2.81339175e-09
 8.98063761e-10
 8.98063761e-10
 8.98063761e-10
 8.98063761e-10
 2.09343081e-09
 2.09343081e-09
 2.09343081e-09
 2.09343081e-09
)
)
1
(
101
(
 4.78355354e-25
 3.33587367e-21
 3.33587367e-21
 3.33587367e-21
 3.33587367e-21
 3.33587367e-21
 3.33587367e-21
 3.33587367e-21
 3.33587367e-21
 3.33587367e-21
 3.33587367e-21
 3.33587367e-21
 3.33587367e-21
 3.33587367e-21
 3.33587367e-21
 3.33587367e-21
 3.33587367e-21
 3.33587367e-21
 3.33587367e-21
 3.33587367e-21
 3.33587367e-21
 3.33587367e-21
 3.33587367e-21
 3.33587367e-21
 3.33587367e-21
 3.33587367e-21
 3.33587367e-21
 3.33587367e-21
 3.33587367e-21
 3.33587367e-21
 3.33587367e-21
 3.33587367e-21
 3.33587367e-21
 3.33587367e-21
 3.33587367e-21
 3.33587367e-21
 3.33587367e-21
 3.33587367e-21
 3.33587367e-21
 3.33587367e-21
 1.09486465e-08
 1.09486465e-08
 1.09486465e-08
 1.09486465e-08
 1.09486465e-08
 1.71101698e-08
 1.71101698e-08
 1.71101698e-08
 1.71101698e-08
 1.71101698e-08
 1.71101698e-08
 1.71101698e-08
 1.71101698e-08
 1.71101698e-08
 1.71101698e-08
 1.71101698e-08
 1.71101698e-08
 1.71101698e-08
 1.71101698e-08
 1.54064976e-08
 1.54064976e-08
 1.54064976e-08
 1.54064976e-08
 1.54064976e-08
 1.54064976e-08
 1.54064976e-08
 1.54064976e-08
 1.54064976e-08
 1.54064976e-08
 2.17353916e-08
 2.17353916e-08
 2.17353916e-08
 2.17353916e-08
 2.17353916e-08
 2.17353916e-08
 2.17353916e-08
 2.17353916e-08
 2.17353916e-08
 2.17353916e-08
 2.17353916e-08
 2.17353916e-08
 2.17353916e-08
 9.59465265e-09
 9.59465265e-09
 1.44552508e-08
 1.44552508e-08
 1.44552508e-08
 1.44552508e-08
 1.44552508e-08
 4.56752045e-09
 4.56752045e-09
 4.56752045e-09
 2.81339175e-09
 2.81339175e-09
 8.98063761e-10
 8.98063761e-10
 8.98063761e-10
 8.98063761e-10
 8.98063761e-10
 2.09343081e-09
 2.09343081e-09
)
)
1
(
101
(
 4.96561446e-21
 4.96561446e-21
 4.96561446e-21
 4.96561446e-21
 4.96561446e-21
 4.96561446e-21
 4.96561446e-21
 4.96561446e-21
 4.96561446e-21
 4.96561446e-21
 4.96561446e-21
 4.96561446e-21
 4.96561446e-21
 4.96561446e-21
 4.96561446e-21
 4.96561446e-21
 4.96561446e-21
 4.96561446e-21
 4.96561446e-21
 4.96561446e-21
 4.96561446e-21
 4.96561446e-21
 4.96561446e-21
 4.96561446e-21
 4.96561446e-21
 4.96561446e-21
 4.96561446e-21
 4.96561446e-21
 4.96561446e-21
 4.96561446e-21
 4.96561446e-21
 4.96561446e-21
 4.96561446e-21
 4.96561446e-21
 4.96561446e-21
 4.96561446e-21
 4.96561446e-21
 4.96561446e-21
 4.96561446e-21
 4.96561446e-21
 1.09486465e-08
 1.09486465e-08
 1.09486465e-08
 1.09486465e-08
 1.09486465e-08
 1.09486465e-08
 1.71101698e-08
 1.71101698e-08
 1.71101698e-08
 1.71101698e-08
 1.71101698e-08
 1.71101698e-08
 1.71101698e-08
 1.71101698e-08
 1.71101698e-08
 1.71101698e-08
 1.71101698e-08
 1.71101698e-08
 1.71101698e-08
 1.71101698e-08
 1.71101698e-08
 1.54064976e-08
 1.54064976e-08
 1.54064976e-08
 1.54064976e-08
 1.54064976e-08
 1.54064976e-08
 1.54064976e-08
 1.54064976e-08
 1.54064976e-08
 1.54064976e-08
 2.17353916e-08
 2.17353916e-08
 2.17353916e-08
 2.17353916e-08
 2.17353916e-08
 2.17353916e-08
 2.17353916e-08
 2.17353916e-08
 2.17353916e-08
 2.17353916e-08
 2.17353916e-08
 2.17353916e-08
 9.59465265e-09
 9.59465265e-09
 9.59465265e-09
 1.44552508e-08
 1.44552508e-08
 1.44552508e-08
 1.44552508e-08
 4.56752045e-09
 4.56752045e-09
 4.56752045e-09
 2.81339175e-09
 2.81339175e-09
 8.98063761e-10
 8.98063761e-10
 8.98063761e-10
 8.98063761e-10
 8.98063761e-10
 8.98063761e-10
)
)
1
(
101
(
 6.78361599e-21
 6.78361599e-21
 6.78361599e-21
 6.78361599e-21
 6.78361599e-21
 6.78361599e-21
 6.78361599e-21
 6.78361599e-21
 6.78361599e-21
 6.78361599e-21
 6.78361599e-21
 6.78361599e-21
 6.78361599e-21
 6.78361599e-21
 6.78361599e-21
 6.78361599e-21
 6.78361599e-21
 6.78361599e-21
 6.78361599e-21
 6.78361599e-21
 6.78361599e-21
 6.78361599e-21
 6.78361599e-21
 6.78361599e-21
 6.78361599e-21
 6.78361599e-21
 6.78361599e-21
 6.78361599e-21
 6.78361599e-21
 6.78361599e-21
 6.78361599e-21
 6.78361599e-21
 6.78361599e-21
 6.78361599e-21
 6.78361599e-21
 6.78361599e-21
 6.78361599e-21
 6.78361599e-21
 6.78361599e-21
 1.09486465e-08
 1.09486465e-08
 1.09486465e-08
 1.09486465e-08
 1.09486465e-08
 1.09486465e-08
 1.09486465e-08
 1.09486465e-08
 1.09486465e-08
 1.71101698e-08
 1.71101698e-08
 1.71101698e-08
 1.71101698e-08
 1.71101698e-08
 1.71101698e-08
 1.71101698e-08
 1.71101698e-08
 1.71101698e-08
 1.71101698e-08
 1.71101698e-08
 1.71101698e-08
 1.71101698e-08
 1.71101698e-08
 1.54064976e-08
 1.54064976e-08
 1.54064976e-08
 1.54064976e-08
 1.54064976e-08
 1.54064976e-08
 1.54064976e-08
 1.54064976e-08
 1.54064976e-08
 1.54064976e-08
 2.17353916e-08
 2.17353916e-08
 2.17353916e-08
 2.17353916e-08
 2.17353916e-08
 2.17353916e-08
 2.17353916e-08
 2.17353916e-08
 2.17353916e-08
 2.17353916e-08
 2.17353916e-08
 2.17353916e-08
 9.59465265e-09
 9.59465265e-09
 9.59465265e-09
 9.59465265e-09
 6.21707671e-09
 6.21707671e-09
 6.21707671e-09
 4.56752045e-09
 4.56752045e-09
 4.56752045e-09
 2.81339175e-09
 2.81339175e-09
 8.98063761e-10
 8.98063761e-10
 8.98063761e-10