/*--------------------------------*- C++ -*----------------------------------*\
| =========                 |                                                 |
| \\      /  F ield        | OpenFOAM: The Open Source CFD Toolbox           |
|  \\    /   O peration    | Version:  7                                     |
|   \\  /    A nd          | Web:      http://www.OpenFOAM.com               |
|    \\/     M anipulation |                                                 |
\*---------------------------------------------------------------------------*/

FoamFile
{
    version     2.0;
    format      ascii;
    class       dictionary;
    object      Y_C3H8_table;
}

Y_C3H8_table
2
(
101
(
1
(
101
(
 8.93082981e-24
 8.93082981e-24
 8.93082981e-24
 8.93082981e-24
 8.93082981e-24
 8.93082981e-24
 8.93082981e-24
 8.93082981e-24
 8.93082981e-24
 8.93082981e-24
 8.93082981e-24
 8.93082981e-24
 8.93082981e-24
 8.93082981e-24
 8.93082981e-24
 8.93082981e-24
 8.93082981e-24
 8.93082981e-24
 8.93082981e-24
 8.93082981e-24
 8.93082981e-24
 8.93082981e-24
 8.93082981e-24
 8.93082981e-24
 8.93082981e-24
 8.93082981e-24
 8.93082981e-24
 8.93082981e-24
 8.93082981e-24
 8.93082981e-24
 8.93082981e-24
 8.93082981e-24
 8.93082981e-24
 8.93082981e-24
 8.93082981e-24
 8.93082981e-24
 8.93082981e-24
 8.93082981e-24
 8.93082981e-24
 8.93082981e-24
 8.93082981e-24
 8.93082981e-24
 8.93082981e-24
 8.93082981e-24
 8.93082981e-24
 5.55712831e-07
 5.55712831e-07
 1.51901143e-06
 1.51901143e-06
 1.51901143e-06
 1.51901143e-06
 1.51901143e-06
 1.51901143e-06
 1.51901143e-06
 1.51901143e-06
 1.51901143e-06
 1.51901143e-06
 1.51901143e-06
 1.51901143e-06
 1.51901143e-06
 1.51901143e-06
 1.51901143e-06
 1.51901143e-06
 1.10341781e-06
 1.10341781e-06
 1.10341781e-06
 1.10341781e-06
 1.10341781e-06
 1.10341781e-06
 1.10341781e-06
 1.10341781e-06
 1.10341781e-06
 1.10341781e-06
 1.10341781e-06
 1.10341781e-06
 1.28497294e-07
 1.28497294e-07
 1.28497294e-07
 1.28497294e-07
 1.28497294e-07
 1.28497294e-07
 1.28497294e-07
 1.07508312e-07
 1.07508312e-07
 1.07508312e-07
 1.07508312e-07
 1.07508312e-07
 1.07508312e-07
 5.50587612e-08
 5.50587612e-08
 5.50587612e-08
 5.50587612e-08
 5.50587612e-08
 5.50587612e-08
 5.50587612e-08
 6.35223592e-09
 6.35223592e-09
 6.35223592e-09
 6.35223592e-09
 6.35223592e-09
 3.52869224e-11
)
)
1
(
101
(
 1.35015767e-21
 1.35015767e-21
 1.35015767e-21
 1.35015767e-21
 1.35015767e-21
 1.35015767e-21
 1.35015767e-21
 1.35015767e-21
 1.35015767e-21
 1.35015767e-21
 1.35015767e-21
 1.35015767e-21
 1.35015767e-21
 1.35015767e-21
 1.35015767e-21
 1.35015767e-21
 1.35015767e-21
 1.35015767e-21
 1.35015767e-21
 1.35015767e-21
 1.35015767e-21
 1.35015767e-21
 1.35015767e-21
 1.35015767e-21
 1.35015767e-21
 1.35015767e-21
 1.35015767e-21
 1.35015767e-21
 1.35015767e-21
 1.35015767e-21
 1.35015767e-21
 1.35015767e-21
 1.35015767e-21
 1.35015767e-21
 1.35015767e-21
 1.35015767e-21
 1.35015767e-21
 1.35015767e-21
 1.35015767e-21
 1.35015767e-21
 1.35015767e-21
 1.35015767e-21
 1.35015767e-21
 1.35015767e-21
 1.35015767e-21
 5.55712831e-07
 5.55712831e-07
 5.55712831e-07
 1.51901143e-06
 1.51901143e-06
 1.51901143e-06
 1.51901143e-06
 1.51901143e-06
 1.51901143e-06
 1.51901143e-06
 1.51901143e-06
 1.51901143e-06
 1.51901143e-06
 1.51901143e-06
 1.51901143e-06
 1.51901143e-06
 1.51901143e-06
 1.51901143e-06
 1.51901143e-06
 1.51901143e-06
 1.10341781e-06
 1.10341781e-06
 1.10341781e-06
 1.10341781e-06
 1.10341781e-06
 1.10341781e-06
 1.10341781e-06
 1.10341781e-06
 1.10341781e-06
 1.10341781e-06
 1.10341781e-06
 1.10341781e-06
 1.28497294e-07
 1.28497294e-07
 1.28497294e-07
 1.28497294e-07
 1.28497294e-07
 1.28497294e-07
 1.07508312e-07
 1.07508312e-07
 1.07508312e-07
 1.07508312e-07
 1.07508312e-07
 1.07508312e-07
 1.07508312e-07
 5.50587612e-08
 5.50587612e-08
 5.50587612e-08
 5.50587612e-08
 5.50587612e-08
 5.50587612e-08
 2.45470828e-08
 6.35223592e-09
 6.35223592e-09
 6.35223592e-09
 1.57464495e-09
)
)
1
(
101
(
 5.53549064e-21
 5.53549064e-21
 5.53549064e-21
 5.53549064e-21
 5.53549064e-21
 5.53549064e-21
 5.53549064e-21
 5.53549064e-21
 5.53549064e-21
 5.53549064e-21
 5.53549064e-21
 5.53549064e-21
 5.53549064e-21
 5.53549064e-21
 5.53549064e-21
 5.53549064e-21
 5.53549064e-21
 5.53549064e-21
 5.53549064e-21
 5.53549064e-21
 5.53549064e-21
 5.53549064e-21
 5.53549064e-21
 5.53549064e-21
 5.53549064e-21
 5.53549064e-21
 5.53549064e-21
 5.53549064e-21
 5.53549064e-21
 5.53549064e-21
 5.53549064e-21
 5.53549064e-21
 5.53549064e-21
 5.53549064e-21
 5.53549064e-21
 5.53549064e-21
 5.53549064e-21
 5.53549064e-21
 5.53549064e-21
 5.53549064e-21
 5.53549064e-21
 5.53549064e-21
 5.53549064e-21
 5.53549064e-21
 5.55712831e-07
 5.55712831e-07
 5.55712831e-07
 5.55712831e-07
 5.55712831e-07
 5.55712831e-07
 1.51901143e-06
 1.51901143e-06
 1.51901143e-06
 1.51901143e-06
 1.51901143e-06
 1.51901143e-06
 1.51901143e-06
 1.51901143e-06
 1.51901143e-06
 1.51901143e-06
 1.51901143e-06
 1.51901143e-06
 1.51901143e-06
 1.51901143e-06
 1.51901143e-06
 1.51901143e-06
 1.10341781e-06
 1.10341781e-06
 1.10341781e-06
 1.10341781e-06
 1.10341781e-06
 1.10341781e-06
 1.10341781e-06
 1.10341781e-06
 1.10341781e-06
 1.10341781e-06
 1.10341781e-06
 1.10341781e-06
 1.28497294e-07
 1.28497294e-07
 1.28497294e-07
 1.28497294e-07
 1.28497294e-07
 1.28497294e-07
 1.28497294e-07
 1.07508312e-07
 1.07508312e-07
 1.07508312e-07
 1.07508312e-07
 1.07508312e-07
 1.07508312e-07
 5.50587612e-08
 5.50587612e-08
 5.50587612e-08
 5.50587612e-08
 5.50587612e-08
 5.50587612e-08
 2.45470828e-08
 2.45470828e-08
 8.45793766e-09
 8.45793766e-09
)
)
1
(
101
(
 8.42871757e-21
 8.42871757e-21
 8.42871757e-21
 8.42871757e-21
 8.42871757e-21
 8.42871757e-21
 8.42871757e-21
 8.42871757e-21
 8.42871757e-21
 8.42871757e-21
 8.42871757e-21
 8.42871757e-21
 8.42871757e-21
 8.42871757e-21
 8.42871757e-21
 8.42871757e-21
 8.42871757e-21
 8.42871757e-21
 8.42871757e-21
 8.42871757e-21
 8.42871757e-21
 8.42871757e-21
 8.42871757e-21
 8.42871757e-21
 8.42871757e-21
 8.42871757e-21
 8.42871757e-21
 8.42871757e-21
 8.42871757e-21
 8.42871757e-21
 8.42871757e-21
 8.42871757e-21
 8.42871757e-21
 8.42871757e-21
 8.42871757e-21
 8.42871757e-21
 8.42871757e-21
 8.42871757e-21
 8.42871757e-21
 8.42871757e-21
 8.42871757e-21
 8.42871757e-21
 8.42871757e-21
 8.42871757e-21
 6.01184869e-07
 5.55712831e-07
 5.55712831e-07
 5.55712831e-07
 5.55712831e-07
 5.55712831e-07
 5.55712831e-07
 1.51901143e-06
 1.51901143e-06
 1.51901143e-06
 1.51901143e-06
 1.51901143e-06
 1.51901143e-06
 1.51901143e-06
 1.51901143e-06
 1.51901143e-06
 1.51901143e-06
 1.51901143e-06
 1.51901143e-06
 1.51901143e-06
 1.51901143e-06
 1.51901143e-06
 1.51901143e-06
 1.10341781e-06
 1.10341781e-06
 1.10341781e-06
 1.10341781e-06
 1.10341781e-06
 1.10341781e-06
 1.10341781e-06
 1.10341781e-06
 1.10341781e-06
 1.10341781e-06
 1.10341781e-06
 1.10341781e-06
 2.14276984e-07
 1.28497294e-07
 1.28497294e-07
 1.28497294e-07
 1.28497294e-07
 1.28497294e-07
 1.28497294e-07
 1.07508312e-07
 1.07508312e-07
 1.07508312e-07
 1.07508312e-07
 1.07508312e-07
 1.07508312e-07
 1.07508312e-07
 5.50587612e-08
 5.50587612e-08
 5.50587612e-08
 5.50587612e-08
 5.50587612e-08
 2.45470828e-08
 3.32673940e-09
 3.32673940e-09
)
)
1
(
101
(
 1.54039292e-20
 1.54039292e-20
 1.54039292e-20
 1.54039292e-20
 1.54039292e-20
 1.54039292e-20
 1.54039292e-20
 1.54039292e-20
 1.54039292e-20
 1.54039292e-20
 1.54039292e-20
 1.54039292e-20
 1.54039292e-20
 1.54039292e-20
 1.54039292e-20
 1.54039292e-20
 1.54039292e-20
 1.54039292e-20
 1.54039292e-20
 1.54039292e-20
 1.54039292e-20
 1.54039292e-20
 1.54039292e-20
 1.54039292e-20
 1.54039292e-20
 1.54039292e-20
 1.54039292e-20
 1.54039292e-20
 1.54039292e-20
 1.54039292e-20
 1.54039292e-20
 1.54039292e-20
 1.54039292e-20
 1.54039292e-20
 1.54039292e-20
 1.54039292e-20
 1.54039292e-20
 1.54039292e-20
 1.54039292e-20
 1.54039292e-20
 1.54039292e-20
 1.54039292e-20
 1.54039292e-20
 1.54039292e-20
 6.01184869e-07
 6.01184869e-07
 6.01184869e-07
 5.55712831e-07
 5.55712831e-07
 5.55712831e-07
 5.55712831e-07
 5.55712831e-07
 5.55712831e-07
 1.51901143e-06
 1.51901143e-06
 1.51901143e-06
 1.51901143e-06
 1.51901143e-06
 1.51901143e-06
 1.51901143e-06
 1.51901143e-06
 1.51901143e-06
 1.51901143e-06
 1.51901143e-06
 1.51901143e-06
 1.51901143e-06
 1.51901143e-06
 1.51901143e-06
 1.10341781e-06
 1.10341781e-06
 1.10341781e-06
 1.10341781e-06
 1.10341781e-06
 1.10341781e-06
 1.10341781e-06
 1.10341781e-06
 1.10341781e-06
 1.10341781e-06
 1.10341781e-06
 1.10341781e-06
 2.14276984e-07
 1.28497294e-07
 1.28497294e-07
 1.28497294e-07
 1.28497294e-07
 1.28497294e-07
 1.28497294e-07
 1.28497294e-07
 1.07508312e-07
 1.07508312e-07
 1.07508312e-07
 1.07508312e-07
 1.07508312e-07
 1.07508312e-07
 5.96623670e-08
 5.50587612e-08
 5.50587612e-08
 5.50587612e-08
 1.57235192e-08
 1.57235192e-08
 3.32673940e-09
)
)
1
(
101
(
 1.45950874e-20
 1.45950874e-20
 1.45950874e-20
 1.45950874e-20
 1.45950874e-20
 1.45950874e-20
 1.45950874e-20
 1.45950874e-20
 1.45950874e-20
 1.45950874e-20
 1.45950874e-20
 1.45950874e-20
 1.45950874e-20
 1.45950874e-20
 1.45950874e-20
 1.45950874e-20
 1.45950874e-20
 1.45950874e-20
 1.45950874e-20
 1.45950874e-20
 1.45950874e-20
 1.45950874e-20
 1.45950874e-20
 1.45950874e-20
 1.45950874e-20
 1.45950874e-20
 1.45950874e-20
 1.45950874e-20
 1.45950874e-20
 1.45950874e-20
 1.45950874e-20
 1.45950874e-20
 1.45950874e-20
 1.45950874e-20
 1.45950874e-20
 1.45950874e-20
 1.45950874e-20
 1.45950874e-20
 1.45950874e-20
 1.45950874e-20
 1.45950874e-20
 1.45950874e-20
 2.30978124e-20
 6.01184869e-07
 6.01184869e-07
 6.01184869e-07
 6.01184869e-07
 6.01184869e-07
 5.55712831e-07
 5.55712831e-07
 5.55712831e-07
 5.55712831e-07
 5.55712831e-07
 5.55712831e-07
 1.51901143e-06
 1.51901143e-06
 1.51901143e-06
 1.51901143e-06
 1.51901143e-06
 1.51901143e-06
 1.51901143e-06
 1.51901143e-06
 1.51901143e-06
 1.51901143e-06
 1.51901143e-06
 1.51901143e-06
 1.51901143e-06
 1.51901143e-06
 1.51901143e-06
 1.51901143e-06
 1.10341781e-06
 1.10341781e-06
 1.10341781e-06
 1.10341781e-06
 1.10341781e-06
 1.10341781e-06
 1.10341781e-06
 1.10341781e-06
 1.10341781e-06
 1.10341781e-06
 1.10341781e-06
 2.14276984e-07
 2.14276984e-07
 1.28497294e-07
 1.28497294e-07
 1.28497294e-07
 1.28497294e-07
 1.28497294e-07
 1.28497294e-07
 1.07508312e-07
 1.07508312e-07
 1.07508312e-07
 1.07508312e-07
 1.07508312e-07
 1.07508312e-07
 5.96623670e-08
 5.96623670e-08
 3.33081197e-08
 3.33081197e-08
 1.57235192e-08
 1.57235192e-08
)
)
1
(
101
(
 3.78284897e-20
 3.78284897e-20
 3.78284897e-20
 3.78284897e-20
 3.78284897e-20
 3.78284897e-20
 3.78284897e-20
 3.78284897e-20
 3.78284897e-20
 3.78284897e-20
 3.78284897e-20
 3.78284897e-20
 3.78284897e-20
 3.78284897e-20
 3.78284897e-20
 3.78284897e-20
 3.78284897e-20
 3.78284897e-20
 3.78284897e-20
 3.78284897e-20
 3.78284897e-20
 3.78284897e-20
 3.78284897e-20
 3.78284897e-20
 3.78284897e-20
 3.78284897e-20
 3.78284897e-20
 3.78284897e-20
 3.78284897e-20
 3.78284897e-20
 3.78284897e-20
 3.78284897e-20
 3.78284897e-20
 2.30978124e-20
 2.30978124e-20
 2.30978124e-20
 2.30978124e-20
 2.30978124e-20
 2.30978124e-20
 2.30978124e-20
 2.30978124e-20
 2.30978124e-20
 2.30978124e-20
 6.01184869e-07
 6.01184869e-07
 6.01184869e-07
 6.01184869e-07
 6.01184869e-07
 6.01184869e-07
 5.55712831e-07
 5.55712831e-07
 5.55712831e-07
 5.55712831e-07
 5.55712831e-07
 5.55712831e-07
 5.55712831e-07
 1.51901143e-06
 1.51901143e-06
 1.51901143e-06
 1.51901143e-06
 1.51901143e-06
 1.51901143e-06
 1.51901143e-06
 1.51901143e-06
 1.51901143e-06
 1.51901143e-06
 1.51901143e-06
 1.51901143e-06
 1.51901143e-06
 1.51901143e-06
 1.51901143e-06
 1.10341781e-06
 1.10341781e-06
 1.10341781e-06
 1.10341781e-06
 1.10341781e-06
 1.10341781e-06
 1.10341781e-06
 1.10341781e-06
 1.10341781e-06
 1.10341781e-06
 1.10341781e-06
 2.14276984e-07
 2.14276984e-07
 1.28497294e-07
 1.28497294e-07
 1.28497294e-07
 1.28497294e-07
 1.28497294e-07
 1.28497294e-07
 1.28497294e-07
 1.07508312e-07
 1.07508312e-07
 1.07508312e-07
 1.07508312e-07
 1.07508312e-07
 5.96623670e-08
 5.96623670e-08
 3.33081197e-08
 3.33081197e-08
 1.57235192e-08
)
)
1
(
101
(
 3.06396219e-20
 3.06396219e-20
 3.06396219e-20
 3.06396219e-20
 3.06396219e-20
 3.06396219e-20
 3.06396219e-20
 3.06396219e-20
 3.06396219e-20
 3.06396219e-20
 3.06396219e-20
 3.06396219e-20
 3.06396219e-20
 3.06396219e-20
 3.06396219e-20
 3.06396219e-20
 3.06396219e-20
 3.06396219e-20
 3.06396219e-20
 3.06396219e-20
 3.06396219e-20
 3.06396219e-20
 3.06396219e-20
 3.06396219e-20
 3.06396219e-20
 3.06396219e-20
 2.30978124e-20
 2.30978124e-20
 2.30978124e-20
 2.30978124e-20
 2.30978124e-20
 2.30978124e-20
 2.30978124e-20
 2.30978124e-20
 2.30978124e-20
 2.30978124e-20
 2.30978124e-20
 2.30978124e-20
 2.30978124e-20
 2.30978124e-20
 2.30978124e-20
 2.30978124e-20
 2.30978124e-20
 6.01184869e-07
 6.01184869e-07
 6.01184869e-07
 6.01184869e-07
 6.01184869e-07
 6.01184869e-07
 6.01184869e-07
 5.55712831e-07
 5.55712831e-07
 5.55712831e-07
 5.55712831e-07
 5.55712831e-07
 5.55712831e-07
 5.55712831e-07
 1.51901143e-06
 1.51901143e-06
 1.51901143e-06
 1.51901143e-06
 1.51901143e-06
 1.51901143e-06
 1.51901143e-06
 1.51901143e-06
 1.51901143e-06
 1.51901143e-06
 1.51901143e-06
 1.51901143e-06
 1.51901143e-06
 1.51901143e-06
 1.51901143e-06
 1.10341781e-06
 1.10341781e-06
 1.10341781e-06
 1.10341781e-06
 1.10341781e-06
 1.10341781e-06
 1.10341781e-06
 1.10341781e-06
 1.10341781e-06
 1.10341781e-06
 1.10341781e-06
 2.14276984e-07
 2.14276984e-07
 2.14276984e-07
 1.28497294e-07
 1.28497294e-07
 1.28497294e-07
 1.28497294e-07
 1.28497294e-07
 1.28497294e-07
 1.25887263e-07
 1.07508312e-07
 1.07508312e-07
 1.07508312e-07
 4.29755142e-08
 4.29755142e-08
 4.29755142e-08
 3.33081197e-08
 3.33081197e-08
)
)
1
(
101
(
 3.84777457e-20
 3.84777457e-20
 3.84777457e-20
 3.84777457e-20
 3.84777457e-20
 3.84777457e-20
 3.84777457e-20
 3.84777457e-20
 3.84777457e-20
 3.84777457e-20
 3.84777457e-20
 3.84777457e-20
 3.84777457e-20
 3.84777457e-20
 3.84777457e-20
 3.84777457e-20
 3.84777457e-20
 3.84777457e-20
 3.84777457e-20
 2.30978124e-20
 2.30978124e-20
 2.30978124e-20
 2.30978124e-20
 2.30978124e-20
 2.30978124e-20
 2.30978124e-20
 2.30978124e-20
 2.30978124e-20
 2.30978124e-20
 2.30978124e-20
 2.30978124e-20
 2.30978124e-20
 2.30978124e-20
 2.30978124e-20
 2.30978124e-20
 2.30978124e-20
 2.30978124e-20
 2.30978124e-20
 2.30978124e-20
 2.30978124e-20
 2.30978124e-20
 2.30978124e-20
 6.01184869e-07
 6.01184869e-07
 6.01184869e-07
 6.01184869e-07
 6.01184869e-07
 6.01184869e-07
 6.01184869e-07
 6.01184869e-07
 6.01184869e-07
 5.55712831e-07
 5.55712831e-07
 5.55712831e-07
 5.55712831e-07
 5.55712831e-07
 5.55712831e-07
 5.55712831e-07
 5.55712831e-07
 1.51901143e-06
 1.51901143e-06
 1.51901143e-06
 1.51901143e-06
 1.51901143e-06
 1.51901143e-06
 1.51901143e-06
 1.51901143e-06
 1.51901143e-06
 1.51901143e-06
 1.51901143e-06
 1.51901143e-06
 1.51901143e-06
 1.51901143e-06
 1.10341781e-06
 1.10341781e-06
 1.10341781e-06
 1.10341781e-06
 1.10341781e-06
 1.10341781e-06
 1.10341781e-06
 1.10341781e-06
 1.10341781e-06
 1.10341781e-06
 1.10341781e-06
 2.14276984e-07
 2.14276984e-07
 2.14276984e-07
 1.28497294e-07
 1.28497294e-07
 1.28497294e-07
 1.28497294e-07
 1.28497294e-07
 1.28497294e-07
 1.25887263e-07
 1.25887263e-07
 4.85563129e-08
 4.85563129e-08
 4.29755142e-08
 4.29755142e-08
 4.29755142e-08
 4.29755142e-08
)
)
1
(
101
(
 9.89704241e-20
 9.89704241e-20
 9.89704241e-20
 9.89704241e-20
 9.89704241e-20
 9.89704241e-20
 9.89704241e-20
 9.89704241e-20
 9.89704241e-20
 9.89704241e-20
 9.89704241e-20
 9.89704241e-20
 9.89704241e-20
 9.89704241e-20
 2.30978124e-20
 2.30978124e-20
 2.30978124e-20
 2.30978124e-20
 2.30978124e-20
 2.30978124e-20
 2.30978124e-20
 2.30978124e-20
 2.30978124e-20
 2.30978124e-20
 2.30978124e-20
 2.30978124e-20
 2.30978124e-20
 2.30978124e-20
 2.30978124e-20
 2.30978124e-20
 2.30978124e-20
 2.30978124e-20
 2.30978124e-20
 2.30978124e-20
 2.30978124e-20
 2.30978124e-20
 2.30978124e-20
 2.30978124e-20
 2.30978124e-20
 2.30978124e-20
 2.30978124e-20
 2.30978124e-20
 6.01184869e-07
 6.01184869e-07
 6.01184869e-07
 6.01184869e-07
 6.01184869e-07
 6.01184869e-07
 6.01184869e-07
 6.01184869e-07
 6.01184869e-07
 6.01184869e-07
 5.55712831e-07
 5.55712831e-07
 5.55712831e-07
 5.55712831e-07
 5.55712831e-07
 5.55712831e-07
 5.55712831e-07
 5.55712831e-07
 1.51901143e-06
 1.51901143e-06
 1.51901143e-06
 1.51901143e-06
 1.51901143e-06
 1.51901143e-06
 1.51901143e-06
 1.51901143e-06
 1.51901143e-06
 1.51901143e-06
 1.51901143e-06
 1.51901143e-06
 1.51901143e-06
 1.51901143e-06
 1.51901143e-06
 1.10341781e-06
 1.10341781e-06
 1.10341781e-06
 1.10341781e-06
 1.10341781e-06
 1.10341781e-06
 1.10341781e-06
 1.10341781e-06
 1.10341781e-06
 1.10341781e-06
 2.14276984e-07
 2.14276984e-07
 2.14276984e-07
 2.14276984e-07
 1.28497294e-07
 1.28497294e-07
 1.28497294e-07
 1.28497294e-07
 1.28497294e-07
 1.25887263e-07
 1.25887263e-07
 4.85563129e-08
 4.85563129e-08
 4.29755142e-08
 4.29755142e-08
 4.29755142e-08
)
)
1
(
101
(
 7.16063908e-20
 7.16063908e-20
 7.16063908e-20
 7.16063908e-20
 7.16063908e-20
 7.16063908e-20
 7.16063908e-20
 7.16063908e-20
 7.16063908e-20
 2.30978124e-20
 2.30978124e-20
 2.30978124e-20
 2.30978124e-20
 2.30978124e-20
 2.30978124e-20
 2.30978124e-20
 2.30978124e-20
 2.30978124e-20
 2.30978124e-20
 2.30978124e-20
 2.30978124e-20
 2.30978124e-20
 2.30978124e-20
 2.30978124e-20
 2.30978124e-20
 2.30978124e-20
 2.30978124e-20
 2.30978124e-20
 2.30978124e-20
 2.30978124e-20
 2.30978124e-20
 2.30978124e-20
 2.30978124e-20
 2.30978124e-20
 2.30978124e-20
 2.30978124e-20
 2.30978124e-20
 2.30978124e-20
 2.30978124e-20
 2.30978124e-20
 2.30978124e-20
 2.30978124e-20
 6.01184869e-07
 6.01184869e-07
 6.01184869e-07
 6.01184869e-07
 6.01184869e-07
 6.01184869e-07
 6.01184869e-07
 6.01184869e-07
 6.01184869e-07
 6.01184869e-07
 6.01184869e-07
 6.01184869e-07
 5.55712831e-07
 5.55712831e-07
 5.55712831e-07
 5.55712831e-07
 5.55712831e-07
 5.55712831e-07
 5.55712831e-07
 5.55712831e-07
 1.51901143e-06
 1.51901143e-06
 1.51901143e-06
 1.51901143e-06
 1.51901143e-06
 1.51901143e-06
 1.51901143e-06
 1.51901143e-06
 1.51901143e-06
 1.51901143e-06
 1.51901143e-06
 1.51901143e-06
 1.51901143e-06
 1.51901143e-06
 1.10341781e-06
 1.10341781e-06
 1.10341781e-06
 1.10341781e-06
 1.10341781e-06
 1.10341781e-06
 1.10341781e-06
 1.10341781e-06
 1.10341781e-06
 1.10341781e-06
 2.14276984e-07
 2.14276984e-07
 2.14276984e-07
 2.14276984e-07
 1.29878636e-07
 1.28497294e-07
 1.28497294e-07
 1.28497294e-07
 1.28497294e-07
 1.25887263e-07
 1.25887263e-07
 4.85563129e-08
 4.85563129e-08
 4.29755142e-08
 4.29755142e-08
)
)
1
(
101
(
 8.83130715e-20
 8.83130715e-20
 8.83130715e-20
 8.83130715e-20
 8.83130715e-20
 8.83130715e-20
 2.30978124e-20
 2.30978124e-20
 2.30978124e-20
 2.30978124e-20
 2.30978124e-20
 2.30978124e-20
 2.30978124e-20
 2.30978124e-20
 2.30978124e-20
 2.30978124e-20
 2.30978124e-20
 2.30978124e-20
 2.30978124e-20
 2.30978124e-20
 2.30978124e-20
 2.30978124e-20
 2.30978124e-20
 2.30978124e-20
 2.30978124e-20
 2.30978124e-20
 2.30978124e-20
 2.30978124e-20
 2.30978124e-20
 2.30978124e-20
 2.30978124e-20
 2.30978124e-20
 2.30978124e-20
 2.30978124e-20
 2.30978124e-20
 2.30978124e-20
 2.30978124e-20
 2.30978124e-20
 2.30978124e-20
 2.30978124e-20
 2.30978124e-20
 2.30978124e-20
 6.01184869e-07
 6.01184869e-07
 6.01184869e-07
 6.01184869e-07
 6.01184869e-07
 6.01184869e-07
 6.01184869e-07
 6.01184869e-07
 6.01184869e-07
 6.01184869e-07
 6.01184869e-07
 6.01184869e-07
 6.01184869e-07
 5.55712831e-07
 5.55712831e-07
 5.55712831e-07
 5.55712831e-07
 5.55712831e-07
 5.55712831e-07
 5.55712831e-07
 5.55712831e-07
 1.51901143e-06
 1.51901143e-06
 1.51901143e-06
 1.51901143e-06
 1.51901143e-06
 1.51901143e-06
 1.51901143e-06
 1.51901143e-06
 1.51901143e-06
 1.51901143e-06
 1.51901143e-06
 1.51901143e-06
 1.51901143e-06
 1.51901143e-06
 1.10341781e-06
 1.10341781e-06
 1.10341781e-06
 1.10341781e-06
 1.10341781e-06
 1.10341781e-06
 1.10341781e-06
 1.10341781e-06
 1.10341781e-06
 1.10341781e-06
 2.14276984e-07
 2.14276984e-07
 2.14276984e-07
 2.14276984e-07
 1.29878636e-07
 1.29878636e-07
 8.14118557e-08
 8.14118557e-08
 8.14118557e-08
 1.25887263e-07
 1.25887263e-07
 4.85563129e-08
 4.85563129e-08
 4.29755142e-08
)
)
1
(
101
(
 1.15393932e-19
 1.15393932e-19
 1.15393932e-19
 2.30978124e-20
 2.30978124e-20
 2.30978124e-20
 2.30978124e-20
 2.30978124e-20
 2.30978124e-20
 2.30978124e-20
 2.30978124e-20
 2.30978124e-20
 2.30978124e-20
 2.30978124e-20
 2.30978124e-20
 2.30978124e-20
 2.30978124e-20
 2.30978124e-20
 2.30978124e-20
 2.30978124e-20
 2.30978124e-20
 2.30978124e-20
 2.30978124e-20
 2.30978124e-20
 2.30978124e-20
 2.30978124e-20
 2.30978124e-20
 2.30978124e-20
 2.30978124e-20
 2.30978124e-20
 2.30978124e-20
 2.30978124e-20
 2.30978124e-20
 2.30978124e-20
 2.30978124e-20
 2.30978124e-20
 2.30978124e-20
 2.30978124e-20
 2.30978124e-20
 2.30978124e-20
 2.30978124e-20
 4.30009472e-07
 6.01184869e-07
 6.01184869e-07
 6.01184869e-07
 6.01184869e-07
 6.01184869e-07
 6.01184869e-07
 6.01184869e-07
 6.01184869e-07
 6.01184869e-07
 6.01184869e-07
 6.01184869e-07
 6.01184869e-07
 6.01184869e-07
 6.01184869e-07
 5.55712831e-07
 5.55712831e-07
 5.55712831e-07
 5.55712831e-07
 5.55712831e-07
 5.55712831e-07
 5.55712831e-07
 5.55712831e-07
 5.55712831e-07
 1.51901143e-06
 1.51901143e-06
 1.51901143e-06
 1.51901143e-06
 1.51901143e-06
 1.51901143e-06
 1.51901143e-06
 1.51901143e-06
 1.51901143e-06
 1.51901143e-06
 1.51901143e-06
 1.51901143e-06
 1.51901143e-06
 1.10341781e-06
 1.10341781e-06
 1.10341781e-06
 1.10341781e-06
 1.10341781e-06
 1.10341781e-06
 1.10341781e-06
 1.10341781e-06
 1.10341781e-06
 1.10341781e-06
 2.14276984e-07
 2.14276984e-07
 2.14276984e-07
 2.14276984e-07
 1.29878636e-07
 1.29878636e-07
 8.14118557e-08
 8.14118557e-08
 8.14118557e-08
 8.14118557e-08
 1.25887263e-07
 4.85563129e-08
 4.85563129e-08
)
)
1
(
101
(
 7.45712295e-21
 7.45712295e-21
 2.30978124e-20
 2.30978124e-20
 2.30978124e-20
 2.30978124e-20
 2.30978124e-20
 2.30978124e-20
 2.30978124e-20
 2.30978124e-20
 2.30978124e-20
 2.30978124e-20
 2.30978124e-20
 2.30978124e-20
 2.30978124e-20
 2.30978124e-20
 2.30978124e-20
 2.30978124e-20
 2.30978124e-20
 2.30978124e-20
 2.30978124e-20
 2.30978124e-20
 2.30978124e-20
 2.30978124e-20
 2.30978124e-20
 2.30978124e-20
 2.30978124e-20
 2.30978124e-20
 2.30978124e-20
 2.30978124e-20
 2.30978124e-20
 2.30978124e-20
 2.30978124e-20
 2.30978124e-20
 2.30978124e-20
 2.30978124e-20
 2.30978124e-20
 2.30978124e-20
 2.30978124e-20
 2.30978124e-20
 2.30978124e-20
 4.30009472e-07
 4.30009472e-07
 6.01184869e-07
 6.01184869e-07
 6.01184869e-07
 6.01184869e-07
 6.01184869e-07
 6.01184869e-07
 6.01184869e-07
 6.01184869e-07
 6.01184869e-07
 6.01184869e-07
 6.01184869e-07
 6.01184869e-07
 6.01184869e-07
 6.01184869e-07
 5.55712831e-07
 5.55712831e-07
 5.55712831e-07
 5.55712831e-07
 5.55712831e-07
 5.55712831e-07
 5.55712831e-07
 5.55712831e-07
 5.55712831e-07
 1.51901143e-06
 1.51901143e-06
 1.51901143e-06
 1.51901143e-06
 1.51901143e-06
 1.51901143e-06
 1.51901143e-06
 1.51901143e-06
 1.51901143e-06
 1.51901143e-06
 1.51901143e-06
 1.51901143e-06
 1.51901143e-06
 1.51901143e-06
 1.10341781e-06
 1.10341781e-06
 1.10341781e-06
 1.10341781e-06
 1.10341781e-06
 1.10341781e-06
 1.10341781e-06
 1.10341781e-06
 1.71266390e-07
 2.14276984e-07
 2.14276984e-07
 2.14276984e-07
 2.57623337e-08
 2.57623337e-08
 2.57623337e-08
 8.14118557e-08
 8.14118557e-08
 8.14118557e-08
 8.14118557e-08
 8.14118557e-08
 4.85563129e-08
)
)
1
(
101
(
 1.19038117e-23
 2.30978124e-20
 2.30978124e-20
 2.30978124e-20
 2.30978124e-20
 2.30978124e-20
 2.30978124e-20
 2.30978124e-20
 2.30978124e-20
 2.30978124e-20
 2.30978124e-20
 2.30978124e-20
 2.30978124e-20
 2.30978124e-20
 2.30978124e-20
 2.30978124e-20
 2.30978124e-20
 2.30978124e-20
 2.30978124e-20
 2.30978124e-20
 2.30978124e-20
 2.30978124e-20
 2.30978124e-20
 2.30978124e-20
 2.30978124e-20
 2.30978124e-20
 2.30978124e-20
 2.30978124e-20
 2.30978124e-20
 2.30978124e-20
 2.30978124e-20
 2.30978124e-20
 2.30978124e-20
 2.30978124e-20
 2.30978124e-20
 2.30978124e-20
 2.30978124e-20
 2.30978124e-20
 2.30978124e-20
 2.30978124e-20
 4.30009472e-07
 4.30009472e-07
 4.30009472e-07
 4.30009472e-07
 6.01184869e-07
 6.01184869e-07
 6.01184869e-07
 6.01184869e-07
 6.01184869e-07
 6.01184869e-07
 6.01184869e-07
 6.01184869e-07
 6.01184869e-07
 6.01184869e-07
 6.01184869e-07
 6.01184869e-07
 6.01184869e-07
 6.01184869e-07
 5.55712831e-07
 5.55712831e-07
 5.55712831e-07
 5.55712831e-07
 5.55712831e-07
 5.55712831e-07
 5.55712831e-07
 5.55712831e-07
 5.55712831e-07
 5.55712831e-07
 1.51901143e-06
 1.51901143e-06
 1.51901143e-06
 1.51901143e-06
 1.51901143e-06
 1.51901143e-06
 1.51901143e-06
 1.51901143e-06
 1.51901143e-06
 1.51901143e-06
 1.51901143e-06
 1.51901143e-06
 1.51901143e-06
 3.80645512e-07
 1.10341781e-06
 1.10341781e-06
 1.10341781e-06
 1.10341781e-06
 1.10341781e-06
 1.10341781e-06
 1.10341781e-06
 1.71266390e-07
 1.71266390e-07
 8.47579674e-08
 8.47579674e-08
 2.57623337e-08
 2.57623337e-08
 2.57623337e-08
 2.57623337e-08
 8.14118557e-08
 8.14118557e-08
 8.14118557e-08
 8.14118557e-08
)
)
1
(
101
(
 1.19038117e-23
 1.46279939e-19
 1.46279939e-19
 1.46279939e-19
 1.46279939e-19
 1.46279939e-19
 1.46279939e-19
 1.46279939e-19
 1.46279939e-19
 1.46279939e-19
 1.46279939e-19
 1.46279939e-19
 1.46279939e-19
 1.46279939e-19
 1.46279939e-19
 1.46279939e-19
 1.46279939e-19
 1.46279939e-19
 1.46279939e-19
 1.46279939e-19
 1.46279939e-19
 1.46279939e-19
 1.46279939e-19
 1.46279939e-19
 1.46279939e-19
 1.46279939e-19
 1.46279939e-19
 1.46279939e-19
 1.46279939e-19
 1.46279939e-19
 1.46279939e-19
 1.46279939e-19
 1.46279939e-19
 1.46279939e-19
 1.46279939e-19
 1.46279939e-19
 1.46279939e-19
 1.46279939e-19
 1.46279939e-19
 1.46279939e-19
 4.30009472e-07
 4.30009472e-07
 4.30009472e-07
 4.30009472e-07
 4.30009472e-07
 6.01184869e-07
 6.01184869e-07
 6.01184869e-07
 6.01184869e-07
 6.01184869e-07
 6.01184869e-07
 6.01184869e-07
 6.01184869e-07
 6.01184869e-07
 6.01184869e-07
 6.01184869e-07
 6.01184869e-07
 6.01184869e-07
 6.01184869e-07
 5.55712831e-07
 5.55712831e-07
 5.55712831e-07
 5.55712831e-07
 5.55712831e-07
 5.55712831e-07
 5.55712831e-07
 5.55712831e-07
 5.55712831e-07
 5.55712831e-07
 1.51901143e-06
 1.51901143e-06
 1.51901143e-06
 1.51901143e-06
 1.51901143e-06
 1.51901143e-06
 1.51901143e-06
 1.51901143e-06
 1.51901143e-06
 1.51901143e-06
 1.51901143e-06
 1.51901143e-06
 1.51901143e-06
 3.80645512e-07
 3.80645512e-07
 1.10341781e-06
 1.10341781e-06
 1.10341781e-06
 1.10341781e-06
 1.10341781e-06
 1.71266390e-07
 1.71266390e-07
 1.71266390e-07
 8.47579674e-08
 8.47579674e-08
 2.57623337e-08
 2.57623337e-08
 2.57623337e-08
 2.57623337e-08
 2.57623337e-08
 8.14118557e-08
 8.14118557e-08
)
)
1
(
101
(
 1.93589361e-19
 1.93589361e-19
 1.93589361e-19
 1.93589361e-19
 1.93589361e-19
 1.93589361e-19
 1.93589361e-19
 1.93589361e-19
 1.93589361e-19
 1.93589361e-19
 1.93589361e-19
 1.93589361e-19
 1.93589361e-19
 1.93589361e-19
 1.93589361e-19
 1.93589361e-19
 1.93589361e-19
 1.93589361e-19
 1.93589361e-19
 1.93589361e-19
 1.93589361e-19
 1.93589361e-19
 1.93589361e-19
 1.93589361e-19
 1.93589361e-19
 1.93589361e-19
 1.93589361e-19
 1.93589361e-19
 1.93589361e-19
 1.93589361e-19
 1.93589361e-19
 1.93589361e-19
 1.93589361e-19
 1.93589361e-19
 1.93589361e-19
 1.93589361e-19
 1.93589361e-19
 1.93589361e-19
 1.93589361e-19
 1.93589361e-19
 4.30009472e-07
 4.30009472e-07
 4.30009472e-07
 4.30009472e-07
 4.30009472e-07
 4.30009472e-07
 6.01184869e-07
 6.01184869e-07
 6.01184869e-07
 6.01184869e-07
 6.01184869e-07
 6.01184869e-07
 6.01184869e-07
 6.01184869e-07
 6.01184869e-07
 6.01184869e-07
 6.01184869e-07
 6.01184869e-07
 6.01184869e-07
 6.01184869e-07
 6.01184869e-07
 5.55712831e-07
 5.55712831e-07
 5.55712831e-07
 5.55712831e-07
 5.55712831e-07
 5.55712831e-07
 5.55712831e-07
 5.55712831e-07
 5.55712831e-07
 5.55712831e-07
 1.51901143e-06
 1.51901143e-06
 1.51901143e-06
 1.51901143e-06
 1.51901143e-06
 1.51901143e-06
 1.51901143e-06
 1.51901143e-06
 1.51901143e-06
 1.51901143e-06
 1.51901143e-06
 1.51901143e-06
 3.80645512e-07
 3.80645512e-07
 3.80645512e-07
 1.10341781e-06
 1.10341781e-06
 1.10341781e-06
 1.10341781e-06
 1.71266390e-07
 1.71266390e-07
 1.71266390e-07
 8.47579674e-08
 8.47579674e-08
 2.57623337e-08
 2.57623337e-08
 2.57623337e-08
 2.57623337e-08
 2.57623337e-08
 2.57623337e-08
)
)
1
(
101
(
 2.36180483e-19
 2.36180483e-19
 2.36180483e-19
 2.36180483e-19
 2.36180483e-19
 2.36180483e-19
 2.36180483e-19
 2.36180483e-19
 2.36180483e-19
 2.36180483e-19
 2.36180483e-19
 2.36180483e-19
 2.36180483e-19
 2.36180483e-19
 2.36180483e-19
 2.36180483e-19
 2.36180483e-19
 2.36180483e-19
 2.36180483e-19
 2.36180483e-19
 2.36180483e-19
 2.36180483e-19
 2.36180483e-19
 2.36180483e-19
 2.36180483e-19
 2.36180483e-19
 2.36180483e-19
 2.36180483e-19
 2.36180483e-19
 2.36180483e-19
 2.36180483e-19
 2.36180483e-19
 2.36180483e-19
 2.36180483e-19
 2.36180483e-19
 2.36180483e-19
 2.36180483e-19
 2.36180483e-19
 2.36180483e-19
 4.30009472e-07
 4.30009472e-07
 4.30009472e-07
 4.30009472e-07
 4.30009472e-07
 4.30009472e-07
 4.30009472e-07
 4.30009472e-07
 4.30009472e-07
 6.01184869e-07
 6.01184869e-07
 6.01184869e-07
 6.01184869e-07
 6.01184869e-07
 6.01184869e-07
 6.01184869e-07
 6.01184869e-07
 6.01184869e-07
 6.01184869e-07
 6.01184869e-07
 6.01184869e-07
 6.01184869e-07
 6.01184869e-07
 5.55712831e-07
 5.55712831e-07
 5.55712831e-07
 5.55712831e-07
 5.55712831e-07
 5.55712831e-07
 5.55712831e-07
 5.55712831e-07
 5.55712831e-07
 5.55712831e-07
 1.51901143e-06
 1.51901143e-06
 1.51901143e-06
 1.51901143e-06
 1.51901143e-06
 1.51901143e-06
 1.51901143e-06
 1.51901143e-06
 1.51901143e-06
 1.51901143e-06
 1.51901143e-06
 1.51901143e-06
 3.80645512e-07
 3.80645512e-07
 3.80645512e-07
 3.80645512e-07
 2.43900030e-07
 2.43900030e-07
 2.43900030e-07
 1.71266390e-07
 1.71266390e-07
 1.71266390e-07
 8.47579674e-08
 8.47579674e-08
 2.57623337e-08
 2.57623337e-08
 2.57623337e-08