/*--------------------------------*- C++ -*----------------------------------*\
| =========                 |                                                 |
| \\      /  F ield        | OpenFOAM: The Open Source CFD Toolbox           |
|  \\    /   O peration    | Version:  7                                     |
|   \\  /    A nd          | Web:      http://www.OpenFOAM.com               |
|    \\/     M anipulation |                                                 |
\*---------------------------------------------------------------------------*/

FoamFile
{
    version     2.0;
    format      ascii;
    class       dictionary;
    object      Y_C_table;
}

Y_C_table
2
(
101
(
1
(
101
(
 1.50589388e-26
 1.50589388e-26
 1.50589388e-26
 1.50589388e-26
 1.50589388e-26
 1.50589388e-26
 1.50589388e-26
 1.50589388e-26
 1.50589388e-26
 1.50589388e-26
 1.50589388e-26
 1.50589388e-26
 1.50589388e-26
 1.50589388e-26
 1.50589388e-26
 1.50589388e-26
 1.50589388e-26
 1.50589388e-26
 1.50589388e-26
 1.50589388e-26
 1.50589388e-26
 1.50589388e-26
 1.50589388e-26
 1.50589388e-26
 1.50589388e-26
 1.50589388e-26
 1.50589388e-26
 1.50589388e-26
 1.50589388e-26
 1.50589388e-26
 1.50589388e-26
 1.50589388e-26
 1.50589388e-26
 1.50589388e-26
 1.50589388e-26
 1.50589388e-26
 1.50589388e-26
 1.50589388e-26
 1.50589388e-26
 1.50589388e-26
 1.50589388e-26
 1.50589388e-26
 1.50589388e-26
 1.50589388e-26
 1.50589388e-26
 4.47472630e-25
 4.47472630e-25
 7.89594259e-25
 7.89594259e-25
 7.89594259e-25
 7.89594259e-25
 7.89594259e-25
 7.89594259e-25
 7.89594259e-25
 7.89594259e-25
 7.89594259e-25
 7.89594259e-25
 7.89594259e-25
 7.89594259e-25
 7.89594259e-25
 7.89594259e-25
 7.89594259e-25
 7.89594259e-25
 1.90658643e-23
 1.90658643e-23
 1.90658643e-23
 1.90658643e-23
 1.90658643e-23
 1.90658643e-23
 1.90658643e-23
 1.90658643e-23
 1.90658643e-23
 1.90658643e-23
 1.90658643e-23
 1.90658643e-23
 2.53070084e-20
 2.53070084e-20
 2.53070084e-20
 2.53070084e-20
 2.53070084e-20
 2.53070084e-20
 2.53070084e-20
 2.01220438e-20
 2.01220438e-20
 2.01220438e-20
 2.01220438e-20
 2.01220438e-20
 2.01220438e-20
 4.16639185e-18
 4.16639185e-18
 4.16639185e-18
 4.16639185e-18
 4.16639185e-18
 4.16639185e-18
 4.16639185e-18
 1.75439349e-16
 1.75439349e-16
 1.75439349e-16
 1.75439349e-16
 1.75439349e-16
 7.08313882e-15
)
)
1
(
101
(
 1.34683846e-25
 1.34683846e-25
 1.34683846e-25
 1.34683846e-25
 1.34683846e-25
 1.34683846e-25
 1.34683846e-25
 1.34683846e-25
 1.34683846e-25
 1.34683846e-25
 1.34683846e-25
 1.34683846e-25
 1.34683846e-25
 1.34683846e-25
 1.34683846e-25
 1.34683846e-25
 1.34683846e-25
 1.34683846e-25
 1.34683846e-25
 1.34683846e-25
 1.34683846e-25
 1.34683846e-25
 1.34683846e-25
 1.34683846e-25
 1.34683846e-25
 1.34683846e-25
 1.34683846e-25
 1.34683846e-25
 1.34683846e-25
 1.34683846e-25
 1.34683846e-25
 1.34683846e-25
 1.34683846e-25
 1.34683846e-25
 1.34683846e-25
 1.34683846e-25
 1.34683846e-25
 1.34683846e-25
 1.34683846e-25
 1.34683846e-25
 1.34683846e-25
 1.34683846e-25
 1.34683846e-25
 1.34683846e-25
 1.34683846e-25
 4.47472630e-25
 4.47472630e-25
 4.47472630e-25
 7.89594259e-25
 7.89594259e-25
 7.89594259e-25
 7.89594259e-25
 7.89594259e-25
 7.89594259e-25
 7.89594259e-25
 7.89594259e-25
 7.89594259e-25
 7.89594259e-25
 7.89594259e-25
 7.89594259e-25
 7.89594259e-25
 7.89594259e-25
 7.89594259e-25
 7.89594259e-25
 7.89594259e-25
 1.90658643e-23
 1.90658643e-23
 1.90658643e-23
 1.90658643e-23
 1.90658643e-23
 1.90658643e-23
 1.90658643e-23
 1.90658643e-23
 1.90658643e-23
 1.90658643e-23
 1.90658643e-23
 1.90658643e-23
 2.53070084e-20
 2.53070084e-20
 2.53070084e-20
 2.53070084e-20
 2.53070084e-20
 2.53070084e-20
 2.01220438e-20
 2.01220438e-20
 2.01220438e-20
 2.01220438e-20
 2.01220438e-20
 2.01220438e-20
 2.01220438e-20
 4.16639185e-18
 4.16639185e-18
 4.16639185e-18
 4.16639185e-18
 4.16639185e-18
 4.16639185e-18
 2.97885668e-17
 1.75439349e-16
 1.75439349e-16
 1.75439349e-16
 4.55795433e-15
)
)
1
(
101
(
 1.01020538e-25
 1.01020538e-25
 1.01020538e-25
 1.01020538e-25
 1.01020538e-25
 1.01020538e-25
 1.01020538e-25
 1.01020538e-25
 1.01020538e-25
 1.01020538e-25
 1.01020538e-25
 1.01020538e-25
 1.01020538e-25
 1.01020538e-25
 1.01020538e-25
 1.01020538e-25
 1.01020538e-25
 1.01020538e-25
 1.01020538e-25
 1.01020538e-25
 1.01020538e-25
 1.01020538e-25
 1.01020538e-25
 1.01020538e-25
 1.01020538e-25
 1.01020538e-25
 1.01020538e-25
 1.01020538e-25
 1.01020538e-25
 1.01020538e-25
 1.01020538e-25
 1.01020538e-25
 1.01020538e-25
 1.01020538e-25
 1.01020538e-25
 1.01020538e-25
 1.01020538e-25
 1.01020538e-25
 1.01020538e-25
 1.01020538e-25
 1.01020538e-25
 1.01020538e-25
 1.01020538e-25
 1.01020538e-25
 4.47472630e-25
 4.47472630e-25
 4.47472630e-25
 4.47472630e-25
 4.47472630e-25
 4.47472630e-25
 7.89594259e-25
 7.89594259e-25
 7.89594259e-25
 7.89594259e-25
 7.89594259e-25
 7.89594259e-25
 7.89594259e-25
 7.89594259e-25
 7.89594259e-25
 7.89594259e-25
 7.89594259e-25
 7.89594259e-25
 7.89594259e-25
 7.89594259e-25
 7.89594259e-25
 7.89594259e-25
 1.90658643e-23
 1.90658643e-23
 1.90658643e-23
 1.90658643e-23
 1.90658643e-23
 1.90658643e-23
 1.90658643e-23
 1.90658643e-23
 1.90658643e-23
 1.90658643e-23
 1.90658643e-23
 1.90658643e-23
 2.53070084e-20
 2.53070084e-20
 2.53070084e-20
 2.53070084e-20
 2.53070084e-20
 2.53070084e-20
 2.53070084e-20
 2.01220438e-20
 2.01220438e-20
 2.01220438e-20
 2.01220438e-20
 2.01220438e-20
 2.01220438e-20
 4.16639185e-18
 4.16639185e-18
 4.16639185e-18
 4.16639185e-18
 4.16639185e-18
 4.16639185e-18
 2.97885668e-17
 2.97885668e-17
 2.44967522e-16
 2.44967522e-16
)
)
1
(
101
(
 1.21880780e-25
 1.21880780e-25
 1.21880780e-25
 1.21880780e-25
 1.21880780e-25
 1.21880780e-25
 1.21880780e-25
 1.21880780e-25
 1.21880780e-25
 1.21880780e-25
 1.21880780e-25
 1.21880780e-25
 1.21880780e-25
 1.21880780e-25
 1.21880780e-25
 1.21880780e-25
 1.21880780e-25
 1.21880780e-25
 1.21880780e-25
 1.21880780e-25
 1.21880780e-25
 1.21880780e-25
 1.21880780e-25
 1.21880780e-25
 1.21880780e-25
 1.21880780e-25
 1.21880780e-25
 1.21880780e-25
 1.21880780e-25
 1.21880780e-25
 1.21880780e-25
 1.21880780e-25
 1.21880780e-25
 1.21880780e-25
 1.21880780e-25
 1.21880780e-25
 1.21880780e-25
 1.21880780e-25
 1.21880780e-25
 1.21880780e-25
 1.21880780e-25
 1.21880780e-25
 1.21880780e-25
 1.21880780e-25
 6.03495224e-26
 4.47472630e-25
 4.47472630e-25
 4.47472630e-25
 4.47472630e-25
 4.47472630e-25
 4.47472630e-25
 7.89594259e-25
 7.89594259e-25
 7.89594259e-25
 7.89594259e-25
 7.89594259e-25
 7.89594259e-25
 7.89594259e-25
 7.89594259e-25
 7.89594259e-25
 7.89594259e-25
 7.89594259e-25
 7.89594259e-25
 7.89594259e-25
 7.89594259e-25
 7.89594259e-25
 7.89594259e-25
 1.90658643e-23
 1.90658643e-23
 1.90658643e-23
 1.90658643e-23
 1.90658643e-23
 1.90658643e-23
 1.90658643e-23
 1.90658643e-23
 1.90658643e-23
 1.90658643e-23
 1.90658643e-23
 1.90658643e-23
 4.39872563e-22
 2.53070084e-20
 2.53070084e-20
 2.53070084e-20
 2.53070084e-20
 2.53070084e-20
 2.53070084e-20
 2.01220438e-20
 2.01220438e-20
 2.01220438e-20
 2.01220438e-20
 2.01220438e-20
 2.01220438e-20
 2.01220438e-20
 4.16639185e-18
 4.16639185e-18
 4.16639185e-18
 4.16639185e-18
 4.16639185e-18
 2.97885668e-17
 1.33793787e-16
 1.33793787e-16
)
)
1
(
101
(
 4.99681240e-26
 4.99681240e-26
 4.99681240e-26
 4.99681240e-26
 4.99681240e-26
 4.99681240e-26
 4.99681240e-26
 4.99681240e-26
 4.99681240e-26
 4.99681240e-26
 4.99681240e-26
 4.99681240e-26
 4.99681240e-26
 4.99681240e-26
 4.99681240e-26
 4.99681240e-26
 4.99681240e-26
 4.99681240e-26
 4.99681240e-26
 4.99681240e-26
 4.99681240e-26
 4.99681240e-26
 4.99681240e-26
 4.99681240e-26
 4.99681240e-26
 4.99681240e-26
 4.99681240e-26
 4.99681240e-26
 4.99681240e-26
 4.99681240e-26
 4.99681240e-26
 4.99681240e-26
 4.99681240e-26
 4.99681240e-26
 4.99681240e-26
 4.99681240e-26
 4.99681240e-26
 4.99681240e-26
 4.99681240e-26
 4.99681240e-26
 4.99681240e-26
 4.99681240e-26
 4.99681240e-26
 4.99681240e-26
 6.03495224e-26
 6.03495224e-26
 6.03495224e-26
 4.47472630e-25
 4.47472630e-25
 4.47472630e-25
 4.47472630e-25
 4.47472630e-25
 4.47472630e-25
 7.89594259e-25
 7.89594259e-25
 7.89594259e-25
 7.89594259e-25
 7.89594259e-25
 7.89594259e-25
 7.89594259e-25
 7.89594259e-25
 7.89594259e-25
 7.89594259e-25
 7.89594259e-25
 7.89594259e-25
 7.89594259e-25
 7.89594259e-25
 7.89594259e-25
 1.90658643e-23
 1.90658643e-23
 1.90658643e-23
 1.90658643e-23
 1.90658643e-23
 1.90658643e-23
 1.90658643e-23
 1.90658643e-23
 1.90658643e-23
 1.90658643e-23
 1.90658643e-23
 1.90658643e-23
 4.39872563e-22
 2.53070084e-20
 2.53070084e-20
 2.53070084e-20
 2.53070084e-20
 2.53070084e-20
 2.53070084e-20
 2.53070084e-20
 2.01220438e-20
 2.01220438e-20
 2.01220438e-20
 2.01220438e-20
 2.01220438e-20
 2.01220438e-20
 3.10767937e-19
 4.16639185e-18
 4.16639185e-18
 4.16639185e-18
 1.91475325e-15
 1.91475325e-15
 1.33793787e-16
)
)
1
(
101
(
 3.10304616e-26
 3.10304616e-26
 3.10304616e-26
 3.10304616e-26
 3.10304616e-26
 3.10304616e-26
 3.10304616e-26
 3.10304616e-26
 3.10304616e-26
 3.10304616e-26
 3.10304616e-26
 3.10304616e-26
 3.10304616e-26
 3.10304616e-26
 3.10304616e-26
 3.10304616e-26
 3.10304616e-26
 3.10304616e-26
 3.10304616e-26
 3.10304616e-26
 3.10304616e-26
 3.10304616e-26
 3.10304616e-26
 3.10304616e-26
 3.10304616e-26
 3.10304616e-26
 3.10304616e-26
 3.10304616e-26
 3.10304616e-26
 3.10304616e-26
 3.10304616e-26
 3.10304616e-26
 3.10304616e-26
 3.10304616e-26
 3.10304616e-26
 3.10304616e-26
 3.10304616e-26
 3.10304616e-26
 3.10304616e-26
 3.10304616e-26
 3.10304616e-26
 3.10304616e-26
 2.70214768e-23
 6.03495224e-26
 6.03495224e-26
 6.03495224e-26
 6.03495224e-26
 6.03495224e-26
 4.47472630e-25
 4.47472630e-25
 4.47472630e-25
 4.47472630e-25
 4.47472630e-25
 4.47472630e-25
 7.89594259e-25
 7.89594259e-25
 7.89594259e-25
 7.89594259e-25
 7.89594259e-25
 7.89594259e-25
 7.89594259e-25
 7.89594259e-25
 7.89594259e-25
 7.89594259e-25
 7.89594259e-25
 7.89594259e-25
 7.89594259e-25
 7.89594259e-25
 7.89594259e-25
 7.89594259e-25
 1.90658643e-23
 1.90658643e-23
 1.90658643e-23
 1.90658643e-23
 1.90658643e-23
 1.90658643e-23
 1.90658643e-23
 1.90658643e-23
 1.90658643e-23
 1.90658643e-23
 1.90658643e-23
 4.39872563e-22
 4.39872563e-22
 2.53070084e-20
 2.53070084e-20
 2.53070084e-20
 2.53070084e-20
 2.53070084e-20
 2.53070084e-20
 2.01220438e-20
 2.01220438e-20
 2.01220438e-20
 2.01220438e-20
 2.01220438e-20
 2.01220438e-20
 3.10767937e-19
 3.10767937e-19
 1.73628400e-16
 1.73628400e-16
 1.91475325e-15
 1.91475325e-15
)
)
1
(
101
(
 1.30921786e-26
 1.30921786e-26
 1.30921786e-26
 1.30921786e-26
 1.30921786e-26
 1.30921786e-26
 1.30921786e-26
 1.30921786e-26
 1.30921786e-26
 1.30921786e-26
 1.30921786e-26
 1.30921786e-26
 1.30921786e-26
 1.30921786e-26
 1.30921786e-26
 1.30921786e-26
 1.30921786e-26
 1.30921786e-26
 1.30921786e-26
 1.30921786e-26
 1.30921786e-26
 1.30921786e-26
 1.30921786e-26
 1.30921786e-26
 1.30921786e-26
 1.30921786e-26
 1.30921786e-26
 1.30921786e-26
 1.30921786e-26
 1.30921786e-26
 1.30921786e-26
 1.30921786e-26
 1.30921786e-26
 2.70214768e-23
 2.70214768e-23
 2.70214768e-23
 2.70214768e-23
 2.70214768e-23
 2.70214768e-23
 2.70214768e-23
 2.70214768e-23
 2.70214768e-23
 2.70214768e-23
 6.03495224e-26
 6.03495224e-26
 6.03495224e-26
 6.03495224e-26
 6.03495224e-26
 6.03495224e-26
 4.47472630e-25
 4.47472630e-25
 4.47472630e-25
 4.47472630e-25
 4.47472630e-25
 4.47472630e-25
 4.47472630e-25
 7.89594259e-25
 7.89594259e-25
 7.89594259e-25
 7.89594259e-25
 7.89594259e-25
 7.89594259e-25
 7.89594259e-25
 7.89594259e-25
 7.89594259e-25
 7.89594259e-25
 7.89594259e-25
 7.89594259e-25
 7.89594259e-25
 7.89594259e-25
 7.89594259e-25
 1.90658643e-23
 1.90658643e-23
 1.90658643e-23
 1.90658643e-23
 1.90658643e-23
 1.90658643e-23
 1.90658643e-23
 1.90658643e-23
 1.90658643e-23
 1.90658643e-23
 1.90658643e-23
 4.39872563e-22
 4.39872563e-22
 2.53070084e-20
 2.53070084e-20
 2.53070084e-20
 2.53070084e-20
 2.53070084e-20
 2.53070084e-20
 2.53070084e-20
 2.01220438e-20
 2.01220438e-20
 2.01220438e-20
 2.01220438e-20
 2.01220438e-20
 3.10767937e-19
 3.10767937e-19
 1.73628400e-16
 1.73628400e-16
 1.91475325e-15
)
)
1
(
101
(
 2.72911397e-26
 2.72911397e-26
 2.72911397e-26
 2.72911397e-26
 2.72911397e-26
 2.72911397e-26
 2.72911397e-26
 2.72911397e-26
 2.72911397e-26
 2.72911397e-26
 2.72911397e-26
 2.72911397e-26
 2.72911397e-26
 2.72911397e-26
 2.72911397e-26
 2.72911397e-26
 2.72911397e-26
 2.72911397e-26
 2.72911397e-26
 2.72911397e-26
 2.72911397e-26
 2.72911397e-26
 2.72911397e-26
 2.72911397e-26
 2.72911397e-26
 2.72911397e-26
 2.70214768e-23
 2.70214768e-23
 2.70214768e-23
 2.70214768e-23
 2.70214768e-23
 2.70214768e-23
 2.70214768e-23
 2.70214768e-23
 2.70214768e-23
 2.70214768e-23
 2.70214768e-23
 2.70214768e-23
 2.70214768e-23
 2.70214768e-23
 2.70214768e-23
 2.70214768e-23
 2.70214768e-23
 6.03495224e-26
 6.03495224e-26
 6.03495224e-26
 6.03495224e-26
 6.03495224e-26
 6.03495224e-26
 6.03495224e-26
 4.47472630e-25
 4.47472630e-25
 4.47472630e-25
 4.47472630e-25
 4.47472630e-25
 4.47472630e-25
 4.47472630e-25
 7.89594259e-25
 7.89594259e-25
 7.89594259e-25
 7.89594259e-25
 7.89594259e-25
 7.89594259e-25
 7.89594259e-25
 7.89594259e-25
 7.89594259e-25
 7.89594259e-25
 7.89594259e-25
 7.89594259e-25
 7.89594259e-25
 7.89594259e-25
 7.89594259e-25
 1.90658643e-23
 1.90658643e-23
 1.90658643e-23
 1.90658643e-23
 1.90658643e-23
 1.90658643e-23
 1.90658643e-23
 1.90658643e-23
 1.90658643e-23
 1.90658643e-23
 1.90658643e-23
 4.39872563e-22
 4.39872563e-22
 4.39872563e-22
 2.53070084e-20
 2.53070084e-20
 2.53070084e-20
 2.53070084e-20
 2.53070084e-20
 2.53070084e-20
 2.37344872e-20
 2.01220438e-20
 2.01220438e-20
 2.01220438e-20
 6.76899361e-16
 6.76899361e-16
 6.76899361e-16
 1.73628400e-16
 1.73628400e-16
)
)
1
(
101
(
 1.14332963e-26
 1.14332963e-26
 1.14332963e-26
 1.14332963e-26
 1.14332963e-26
 1.14332963e-26
 1.14332963e-26
 1.14332963e-26
 1.14332963e-26
 1.14332963e-26
 1.14332963e-26
 1.14332963e-26
 1.14332963e-26
 1.14332963e-26
 1.14332963e-26
 1.14332963e-26
 1.14332963e-26
 1.14332963e-26
 1.14332963e-26
 2.70214768e-23
 2.70214768e-23
 2.70214768e-23
 2.70214768e-23
 2.70214768e-23
 2.70214768e-23
 2.70214768e-23
 2.70214768e-23
 2.70214768e-23
 2.70214768e-23
 2.70214768e-23
 2.70214768e-23
 2.70214768e-23
 2.70214768e-23
 2.70214768e-23
 2.70214768e-23
 2.70214768e-23
 2.70214768e-23
 2.70214768e-23
 2.70214768e-23
 2.70214768e-23
 2.70214768e-23
 2.70214768e-23
 6.03495224e-26
 6.03495224e-26
 6.03495224e-26
 6.03495224e-26
 6.03495224e-26
 6.03495224e-26
 6.03495224e-26
 6.03495224e-26
 6.03495224e-26
 4.47472630e-25
 4.47472630e-25
 4.47472630e-25
 4.47472630e-25
 4.47472630e-25
 4.47472630e-25
 4.47472630e-25
 4.47472630e-25
 7.89594259e-25
 7.89594259e-25
 7.89594259e-25
 7.89594259e-25
 7.89594259e-25
 7.89594259e-25
 7.89594259e-25
 7.89594259e-25
 7.89594259e-25
 7.89594259e-25
 7.89594259e-25
 7.89594259e-25
 7.89594259e-25
 7.89594259e-25
 1.90658643e-23
 1.90658643e-23
 1.90658643e-23
 1.90658643e-23
 1.90658643e-23
 1.90658643e-23
 1.90658643e-23
 1.90658643e-23
 1.90658643e-23
 1.90658643e-23
 1.90658643e-23
 4.39872563e-22
 4.39872563e-22
 4.39872563e-22
 2.53070084e-20
 2.53070084e-20
 2.53070084e-20
 2.53070084e-20
 2.53070084e-20
 2.53070084e-20
 2.37344872e-20
 2.37344872e-20
 1.51581670e-18
 1.51581670e-18
 6.76899361e-16
 6.76899361e-16
 6.76899361e-16
 6.76899361e-16
)
)
1
(
101
(
 1.13299130e-25
 1.13299130e-25
 1.13299130e-25
 1.13299130e-25
 1.13299130e-25
 1.13299130e-25
 1.13299130e-25
 1.13299130e-25
 1.13299130e-25
 1.13299130e-25
 1.13299130e-25
 1.13299130e-25
 1.13299130e-25
 1.13299130e-25
 2.70214768e-23
 2.70214768e-23
 2.70214768e-23
 2.70214768e-23
 2.70214768e-23
 2.70214768e-23
 2.70214768e-23
 2.70214768e-23
 2.70214768e-23
 2.70214768e-23
 2.70214768e-23
 2.70214768e-23
 2.70214768e-23
 2.70214768e-23
 2.70214768e-23
 2.70214768e-23
 2.70214768e-23
 2.70214768e-23
 2.70214768e-23
 2.70214768e-23
 2.70214768e-23
 2.70214768e-23
 2.70214768e-23
 2.70214768e-23
 2.70214768e-23
 2.70214768e-23
 2.70214768e-23
 2.70214768e-23
 6.03495224e-26
 6.03495224e-26
 6.03495224e-26
 6.03495224e-26
 6.03495224e-26
 6.03495224e-26
 6.03495224e-26
 6.03495224e-26
 6.03495224e-26
 6.03495224e-26
 4.47472630e-25
 4.47472630e-25
 4.47472630e-25
 4.47472630e-25
 4.47472630e-25
 4.47472630e-25
 4.47472630e-25
 4.47472630e-25
 7.89594259e-25
 7.89594259e-25
 7.89594259e-25
 7.89594259e-25
 7.89594259e-25
 7.89594259e-25
 7.89594259e-25
 7.89594259e-25
 7.89594259e-25
 7.89594259e-25
 7.89594259e-25
 7.89594259e-25
 7.89594259e-25
 7.89594259e-25
 7.89594259e-25
 1.90658643e-23
 1.90658643e-23
 1.90658643e-23
 1.90658643e-23
 1.90658643e-23
 1.90658643e-23
 1.90658643e-23
 1.90658643e-23
 1.90658643e-23
 1.90658643e-23
 4.39872563e-22
 4.39872563e-22
 4.39872563e-22
 4.39872563e-22
 2.53070084e-20
 2.53070084e-20
 2.53070084e-20
 2.53070084e-20
 2.53070084e-20
 2.37344872e-20
 2.37344872e-20
 1.51581670e-18
 1.51581670e-18
 6.76899361e-16
 6.76899361e-16
 6.76899361e-16
)
)
1
(
101
(
 2.54765587e-25
 2.54765587e-25
 2.54765587e-25
 2.54765587e-25
 2.54765587e-25
 2.54765587e-25
 2.54765587e-25
 2.54765587e-25
 2.54765587e-25
 2.70214768e-23
 2.70214768e-23
 2.70214768e-23
 2.70214768e-23
 2.70214768e-23
 2.70214768e-23
 2.70214768e-23
 2.70214768e-23
 2.70214768e-23
 2.70214768e-23
 2.70214768e-23
 2.70214768e-23
 2.70214768e-23
 2.70214768e-23
 2.70214768e-23
 2.70214768e-23
 2.70214768e-23
 2.70214768e-23
 2.70214768e-23
 2.70214768e-23
 2.70214768e-23
 2.70214768e-23
 2.70214768e-23
 2.70214768e-23
 2.70214768e-23
 2.70214768e-23
 2.70214768e-23
 2.70214768e-23
 2.70214768e-23
 2.70214768e-23
 2.70214768e-23
 2.70214768e-23
 2.70214768e-23
 6.03495224e-26
 6.03495224e-26
 6.03495224e-26
 6.03495224e-26
 6.03495224e-26
 6.03495224e-26
 6.03495224e-26
 6.03495224e-26
 6.03495224e-26
 6.03495224e-26
 6.03495224e-26
 6.03495224e-26
 4.47472630e-25
 4.47472630e-25
 4.47472630e-25
 4.47472630e-25
 4.47472630e-25
 4.47472630e-25
 4.47472630e-25
 4.47472630e-25
 7.89594259e-25
 7.89594259e-25
 7.89594259e-25
 7.89594259e-25
 7.89594259e-25
 7.89594259e-25
 7.89594259e-25
 7.89594259e-25
 7.89594259e-25
 7.89594259e-25
 7.89594259e-25
 7.89594259e-25
 7.89594259e-25
 7.89594259e-25
 1.90658643e-23
 1.90658643e-23
 1.90658643e-23
 1.90658643e-23
 1.90658643e-23
 1.90658643e-23
 1.90658643e-23
 1.90658643e-23
 1.90658643e-23
 1.90658643e-23
 4.39872563e-22
 4.39872563e-22
 4.39872563e-22
 4.39872563e-22
 1.38192914e-20
 2.53070084e-20
 2.53070084e-20
 2.53070084e-20
 2.53070084e-20
 2.37344872e-20
 2.37344872e-20
 1.51581670e-18
 1.51581670e-18
 6.76899361e-16
 6.76899361e-16
)
)
1
(
101
(
 1.22178020e-24
 1.22178020e-24
 1.22178020e-24
 1.22178020e-24
 1.22178020e-24
 1.22178020e-24
 2.70214768e-23
 2.70214768e-23
 2.70214768e-23
 2.70214768e-23
 2.70214768e-23
 2.70214768e-23
 2.70214768e-23
 2.70214768e-23
 2.70214768e-23
 2.70214768e-23
 2.70214768e-23
 2.70214768e-23
 2.70214768e-23
 2.70214768e-23
 2.70214768e-23
 2.70214768e-23
 2.70214768e-23
 2.70214768e-23
 2.70214768e-23
 2.70214768e-23
 2.70214768e-23
 2.70214768e-23
 2.70214768e-23
 2.70214768e-23
 2.70214768e-23
 2.70214768e-23
 2.70214768e-23
 2.70214768e-23
 2.70214768e-23
 2.70214768e-23
 2.70214768e-23
 2.70214768e-23
 2.70214768e-23
 2.70214768e-23
 2.70214768e-23
 2.70214768e-23
 6.03495224e-26
 6.03495224e-26
 6.03495224e-26
 6.03495224e-26
 6.03495224e-26
 6.03495224e-26
 6.03495224e-26
 6.03495224e-26
 6.03495224e-26
 6.03495224e-26
 6.03495224e-26
 6.03495224e-26
 6.03495224e-26
 4.47472630e-25
 4.47472630e-25
 4.47472630e-25
 4.47472630e-25
 4.47472630e-25
 4.47472630e-25
 4.47472630e-25
 4.47472630e-25
 7.89594259e-25
 7.89594259e-25
 7.89594259e-25
 7.89594259e-25
 7.89594259e-25
 7.89594259e-25
 7.89594259e-25
 7.89594259e-25
 7.89594259e-25
 7.89594259e-25
 7.89594259e-25
 7.89594259e-25
 7.89594259e-25
 7.89594259e-25
 1.90658643e-23
 1.90658643e-23
 1.90658643e-23
 1.90658643e-23
 1.90658643e-23
 1.90658643e-23
 1.90658643e-23
 1.90658643e-23
 1.90658643e-23
 1.90658643e-23
 4.39872563e-22
 4.39872563e-22
 4.39872563e-22
 4.39872563e-22
 1.38192914e-20
 1.38192914e-20
 2.06907991e-18
 2.06907991e-18
 2.06907991e-18
 2.37344872e-20
 2.37344872e-20
 1.51581670e-18
 1.51581670e-18
 6.76899361e-16
)
)
1
(
101
(
 6.63518434e-24
 6.63518434e-24
 6.63518434e-24
 2.70214768e-23
 2.70214768e-23
 2.70214768e-23
 2.70214768e-23
 2.70214768e-23
 2.70214768e-23
 2.70214768e-23
 2.70214768e-23
 2.70214768e-23
 2.70214768e-23
 2.70214768e-23
 2.70214768e-23
 2.70214768e-23
 2.70214768e-23
 2.70214768e-23
 2.70214768e-23
 2.70214768e-23
 2.70214768e-23
 2.70214768e-23
 2.70214768e-23
 2.70214768e-23
 2.70214768e-23
 2.70214768e-23
 2.70214768e-23
 2.70214768e-23
 2.70214768e-23
 2.70214768e-23
 2.70214768e-23
 2.70214768e-23
 2.70214768e-23
 2.70214768e-23
 2.70214768e-23
 2.70214768e-23
 2.70214768e-23
 2.70214768e-23
 2.70214768e-23
 2.70214768e-23
 2.70214768e-23
 4.05220298e-26
 6.03495224e-26
 6.03495224e-26
 6.03495224e-26
 6.03495224e-26
 6.03495224e-26
 6.03495224e-26
 6.03495224e-26
 6.03495224e-26
 6.03495224e-26
 6.03495224e-26
 6.03495224e-26
 6.03495224e-26
 6.03495224e-26
 6.03495224e-26
 4.47472630e-25
 4.47472630e-25
 4.47472630e-25
 4.47472630e-25
 4.47472630e-25
 4.47472630e-25
 4.47472630e-25
 4.47472630e-25
 4.47472630e-25
 7.89594259e-25
 7.89594259e-25
 7.89594259e-25
 7.89594259e-25
 7.89594259e-25
 7.89594259e-25
 7.89594259e-25
 7.89594259e-25
 7.89594259e-25
 7.89594259e-25
 7.89594259e-25
 7.89594259e-25
 7.89594259e-25
 1.90658643e-23
 1.90658643e-23
 1.90658643e-23
 1.90658643e-23
 1.90658643e-23
 1.90658643e-23
 1.90658643e-23
 1.90658643e-23
 1.90658643e-23
 1.90658643e-23
 4.39872563e-22
 4.39872563e-22
 4.39872563e-22
 4.39872563e-22
 1.38192914e-20
 1.38192914e-20
 2.06907991e-18
 2.06907991e-18
 2.06907991e-18
 2.06907991e-18
 2.37344872e-20
 1.51581670e-18
 1.51581670e-18
)
)
1
(
101
(
 2.52191814e-24
 2.52191814e-24
 2.70214768e-23
 2.70214768e-23
 2.70214768e-23
 2.70214768e-23
 2.70214768e-23
 2.70214768e-23
 2.70214768e-23
 2.70214768e-23
 2.70214768e-23
 2.70214768e-23
 2.70214768e-23
 2.70214768e-23
 2.70214768e-23
 2.70214768e-23
 2.70214768e-23
 2.70214768e-23
 2.70214768e-23
 2.70214768e-23
 2.70214768e-23
 2.70214768e-23
 2.70214768e-23
 2.70214768e-23
 2.70214768e-23
 2.70214768e-23
 2.70214768e-23
 2.70214768e-23
 2.70214768e-23
 2.70214768e-23
 2.70214768e-23
 2.70214768e-23
 2.70214768e-23
 2.70214768e-23
 2.70214768e-23
 2.70214768e-23
 2.70214768e-23
 2.70214768e-23
 2.70214768e-23
 2.70214768e-23
 2.70214768e-23
 4.05220298e-26
 4.05220298e-26
 6.03495224e-26
 6.03495224e-26
 6.03495224e-26
 6.03495224e-26
 6.03495224e-26
 6.03495224e-26
 6.03495224e-26
 6.03495224e-26
 6.03495224e-26
 6.03495224e-26
 6.03495224e-26
 6.03495224e-26
 6.03495224e-26
 6.03495224e-26
 4.47472630e-25
 4.47472630e-25
 4.47472630e-25
 4.47472630e-25
 4.47472630e-25
 4.47472630e-25
 4.47472630e-25
 4.47472630e-25
 4.47472630e-25
 7.89594259e-25
 7.89594259e-25
 7.89594259e-25
 7.89594259e-25
 7.89594259e-25
 7.89594259e-25
 7.89594259e-25
 7.89594259e-25
 7.89594259e-25
 7.89594259e-25
 7.89594259e-25
 7.89594259e-25
 7.89594259e-25
 7.89594259e-25
 1.90658643e-23
 1.90658643e-23
 1.90658643e-23
 1.90658643e-23
 1.90658643e-23
 1.90658643e-23
 1.90658643e-23
 1.90658643e-23
 1.29345534e-22
 4.39872563e-22
 4.39872563e-22
 4.39872563e-22
 2.48009643e-19
 2.48009643e-19
 2.48009643e-19
 2.06907991e-18
 2.06907991e-18
 2.06907991e-18
 2.06907991e-18
 2.06907991e-18
 1.51581670e-18
)
)
1
(
101
(
 2.37439694e-26
 2.70214768e-23
 2.70214768e-23
 2.70214768e-23
 2.70214768e-23
 2.70214768e-23
 2.70214768e-23
 2.70214768e-23
 2.70214768e-23
 2.70214768e-23
 2.70214768e-23
 2.70214768e-23
 2.70214768e-23
 2.70214768e-23
 2.70214768e-23
 2.70214768e-23
 2.70214768e-23
 2.70214768e-23
 2.70214768e-23
 2.70214768e-23
 2.70214768e-23
 2.70214768e-23
 2.70214768e-23
 2.70214768e-23
 2.70214768e-23
 2.70214768e-23
 2.70214768e-23
 2.70214768e-23
 2.70214768e-23
 2.70214768e-23
 2.70214768e-23
 2.70214768e-23
 2.70214768e-23
 2.70214768e-23
 2.70214768e-23
 2.70214768e-23
 2.70214768e-23
 2.70214768e-23
 2.70214768e-23
 2.70214768e-23
 4.05220298e-26
 4.05220298e-26
 4.05220298e-26
 4.05220298e-26
 6.03495224e-26
 6.03495224e-26
 6.03495224e-26
 6.03495224e-26
 6.03495224e-26
 6.03495224e-26
 6.03495224e-26
 6.03495224e-26
 6.03495224e-26
 6.03495224e-26
 6.03495224e-26
 6.03495224e-26
 6.03495224e-26
 6.03495224e-26
 4.47472630e-25
 4.47472630e-25
 4.47472630e-25
 4.47472630e-25
 4.47472630e-25
 4.47472630e-25
 4.47472630e-25
 4.47472630e-25
 4.47472630e-25
 4.47472630e-25
 7.89594259e-25
 7.89594259e-25
 7.89594259e-25
 7.89594259e-25
 7.89594259e-25
 7.89594259e-25
 7.89594259e-25
 7.89594259e-25
 7.89594259e-25
 7.89594259e-25
 7.89594259e-25
 7.89594259e-25
 7.89594259e-25
 1.04133928e-22
 1.90658643e-23
 1.90658643e-23
 1.90658643e-23
 1.90658643e-23
 1.90658643e-23
 1.90658643e-23
 1.90658643e-23
 1.29345534e-22
 1.29345534e-22
 2.72750673e-21
 2.72750673e-21
 2.48009643e-19
 2.48009643e-19
 2.48009643e-19
 2.48009643e-19
 2.06907991e-18
 2.06907991e-18
 2.06907991e-18
 2.06907991e-18
)
)
1
(
101
(
 2.37439694e-26
 1.55546824e-22
 1.55546824e-22
 1.55546824e-22
 1.55546824e-22
 1.55546824e-22
 1.55546824e-22
 1.55546824e-22
 1.55546824e-22
 1.55546824e-22
 1.55546824e-22
 1.55546824e-22
 1.55546824e-22
 1.55546824e-22
 1.55546824e-22
 1.55546824e-22
 1.55546824e-22
 1.55546824e-22
 1.55546824e-22
 1.55546824e-22
 1.55546824e-22
 1.55546824e-22
 1.55546824e-22
 1.55546824e-22
 1.55546824e-22
 1.55546824e-22
 1.55546824e-22
 1.55546824e-22
 1.55546824e-22
 1.55546824e-22
 1.55546824e-22
 1.55546824e-22
 1.55546824e-22
 1.55546824e-22
 1.55546824e-22
 1.55546824e-22
 1.55546824e-22
 1.55546824e-22
 1.55546824e-22
 1.55546824e-22
 4.05220298e-26
 4.05220298e-26
 4.05220298e-26
 4.05220298e-26
 4.05220298e-26
 6.03495224e-26
 6.03495224e-26
 6.03495224e-26
 6.03495224e-26
 6.03495224e-26
 6.03495224e-26
 6.03495224e-26
 6.03495224e-26
 6.03495224e-26
 6.03495224e-26
 6.03495224e-26
 6.03495224e-26
 6.03495224e-26
 6.03495224e-26
 4.47472630e-25
 4.47472630e-25
 4.47472630e-25
 4.47472630e-25
 4.47472630e-25
 4.47472630e-25
 4.47472630e-25
 4.47472630e-25
 4.47472630e-25
 4.47472630e-25
 7.89594259e-25
 7.89594259e-25
 7.89594259e-25
 7.89594259e-25
 7.89594259e-25
 7.89594259e-25
 7.89594259e-25
 7.89594259e-25
 7.89594259e-25
 7.89594259e-25
 7.89594259e-25
 7.89594259e-25
 7.89594259e-25
 1.04133928e-22
 1.04133928e-22
 1.90658643e-23
 1.90658643e-23
 1.90658643e-23
 1.90658643e-23
 1.90658643e-23
 1.29345534e-22
 1.29345534e-22
 1.29345534e-22
 2.72750673e-21
 2.72750673e-21
 2.48009643e-19
 2.48009643e-19
 2.48009643e-19
 2.48009643e-19
 2.48009643e-19
 2.06907991e-18
 2.06907991e-18
)
)
1
(
101
(
 7.16407080e-22
 7.16407080e-22
 7.16407080e-22
 7.16407080e-22
 7.16407080e-22
 7.16407080e-22
 7.16407080e-22
 7.16407080e-22
 7.16407080e-22
 7.16407080e-22
 7.16407080e-22
 7.16407080e-22
 7.16407080e-22
 7.16407080e-22
 7.16407080e-22
 7.16407080e-22
 7.16407080e-22
 7.16407080e-22
 7.16407080e-22
 7.16407080e-22
 7.16407080e-22
 7.16407080e-22
 7.16407080e-22
 7.16407080e-22
 7.16407080e-22
 7.16407080e-22
 7.16407080e-22
 7.16407080e-22
 7.16407080e-22
 7.16407080e-22
 7.16407080e-22
 7.16407080e-22
 7.16407080e-22
 7.16407080e-22
 7.16407080e-22
 7.16407080e-22
 7.16407080e-22
 7.16407080e-22
 7.16407080e-22
 7.16407080e-22
 4.05220298e-26
 4.05220298e-26
 4.05220298e-26
 4.05220298e-26
 4.05220298e-26
 4.05220298e-26
 6.03495224e-26
 6.03495224e-26
 6.03495224e-26
 6.03495224e-26
 6.03495224e-26
 6.03495224e-26
 6.03495224e-26
 6.03495224e-26
 6.03495224e-26
 6.03495224e-26
 6.03495224e-26
 6.03495224e-26
 6.03495224e-26
 6.03495224e-26
 6.03495224e-26
 4.47472630e-25
 4.47472630e-25
 4.47472630e-25
 4.47472630e-25
 4.47472630e-25
 4.47472630e-25
 4.47472630e-25
 4.47472630e-25
 4.47472630e-25
 4.47472630e-25
 7.89594259e-25
 7.89594259e-25
 7.89594259e-25
 7.89594259e-25
 7.89594259e-25
 7.89594259e-25
 7.89594259e-25
 7.89594259e-25
 7.89594259e-25
 7.89594259e-25
 7.89594259e-25
 7.89594259e-25
 1.04133928e-22
 1.04133928e-22
 1.04133928e-22
 1.90658643e-23
 1.90658643e-23
 1.90658643e-23
 1.90658643e-23
 1.29345534e-22
 1.29345534e-22
 1.29345534e-22
 2.72750673e-21
 2.72750673e-21
 2.48009643e-19
 2.48009643e-19
 2.48009643e-19
 2.48009643e-19
 2.48009643e-19
 2.48009643e-19
)
)
1
(
101
(
 2.83996628e-21
 2.83996628e-21
 2.83996628e-21
 2.83996628e-21
 2.83996628e-21
 2.83996628e-21
 2.83996628e-21
 2.83996628e-21
 2.83996628e-21
 2.83996628e-21
 2.83996628e-21
 2.83996628e-21
 2.83996628e-21
 2.83996628e-21
 2.83996628e-21
 2.83996628e-21
 2.83996628e-21
 2.83996628e-21
 2.83996628e-21
 2.83996628e-21
 2.83996628e-21
 2.83996628e-21
 2.83996628e-21
 2.83996628e-21
 2.83996628e-21
 2.83996628e-21
 2.83996628e-21
 2.83996628e-21
 2.83996628e-21
 2.83996628e-21
 2.83996628e-21
 2.83996628e-21
 2.83996628e-21
 2.83996628e-21
 2.83996628e-21
 2.83996628e-21
 2.83996628e-21
 2.83996628e-21
 2.83996628e-21
 4.05220298e-26
 4.05220298e-26
 4.05220298e-26
 4.05220298e-26
 4.05220298e-26
 4.05220298e-26
 4.05220298e-26
 4.05220298e-26
 4.05220298e-26
 6.03495224e-26
 6.03495224e-26
 6.03495224e-26
 6.03495224e-26
 6.03495224e-26
 6.03495224e-26
 6.03495224e-26
 6.03495224e-26
 6.03495224e-26
 6.03495224e-26
 6.03495224e-26
 6.03495224e-26
 6.03495224e-26
 6.03495224e-26
 4.47472630e-25
 4.47472630e-25
 4.47472630e-25
 4.47472630e-25
 4.47472630e-25
 4.47472630e-25
 4.47472630e-25
 4.47472630e-25
 4.47472630e-25
 4.47472630e-25
 7.89594259e-25
 7.89594259e-25
 7.89594259e-25
 7.89594259e-25
 7.89594259e-25
 7.89594259e-25
 7.89594259e-25
 7.89594259e-25
 7.89594259e-25
 7.89594259e-25
 7.89594259e-25
 7.89594259e-25
 1.04133928e-22
 1.04133928e-22
 1.04133928e-22
 1.04133928e-22
 4.51120745e-22
 4.51120745e-22
 4.51120745e-22
 1.29345534e-22
 1.29345534e-22
 1.29345534e-22
 2.72750673e-21
 2.72750673e-21
 2.48009643e-19
 2.48009643e-19
 2.48009643e-19