/*--------------------------------*- C++ -*----------------------------------*\
| =========                 |                                                 |
| \\      /  F ield        | OpenFOAM: The Open Source CFD Toolbox           |
|  \\    /   O peration    | Version:  7                                     |
|   \\  /    A nd          | Web:      http://www.OpenFOAM.com               |
|    \\/     M anipulation |                                                 |
\*---------------------------------------------------------------------------*/

FoamFile
{
    version     2.0;
    format      ascii;
    class       dictionary;
    object      Y_CH2(S)_table;
}

Y_CH2(S)_table
2
(
101
(
1
(
101
(
 4.46695083e-22
 4.46695083e-22
 4.46695083e-22
 4.46695083e-22
 4.46695083e-22
 4.46695083e-22
 4.46695083e-22
 4.46695083e-22
 4.46695083e-22
 4.46695083e-22
 4.46695083e-22
 4.46695083e-22
 4.46695083e-22
 4.46695083e-22
 4.46695083e-22
 4.46695083e-22
 4.46695083e-22
 4.46695083e-22
 4.46695083e-22
 4.46695083e-22
 4.46695083e-22
 4.46695083e-22
 4.46695083e-22
 4.46695083e-22
 4.46695083e-22
 4.46695083e-22
 4.46695083e-22
 4.46695083e-22
 4.46695083e-22
 4.46695083e-22
 4.46695083e-22
 4.46695083e-22
 4.46695083e-22
 4.46695083e-22
 4.46695083e-22
 4.46695083e-22
 4.46695083e-22
 4.46695083e-22
 4.46695083e-22
 4.46695083e-22
 4.46695083e-22
 4.46695083e-22
 4.46695083e-22
 4.46695083e-22
 4.46695083e-22
 1.45489075e-17
 1.45489075e-17
 1.11724360e-16
 1.11724360e-16
 1.11724360e-16
 1.11724360e-16
 1.11724360e-16
 1.11724360e-16
 1.11724360e-16
 1.11724360e-16
 1.11724360e-16
 1.11724360e-16
 1.11724360e-16
 1.11724360e-16
 1.11724360e-16
 1.11724360e-16
 1.11724360e-16
 1.11724360e-16
 6.97904374e-17
 6.97904374e-17
 6.97904374e-17
 6.97904374e-17
 6.97904374e-17
 6.97904374e-17
 6.97904374e-17
 6.97904374e-17
 6.97904374e-17
 6.97904374e-17
 6.97904374e-17
 6.97904374e-17
 9.83294957e-19
 9.83294957e-19
 9.83294957e-19
 9.83294957e-19
 9.83294957e-19
 9.83294957e-19
 9.83294957e-19
 1.03107023e-18
 1.03107023e-18
 1.03107023e-18
 1.03107023e-18
 1.03107023e-18
 1.03107023e-18
 3.44141713e-19
 3.44141713e-19
 3.44141713e-19
 3.44141713e-19
 3.44141713e-19
 3.44141713e-19
 3.44141713e-19
 1.12808860e-20
 1.12808860e-20
 1.12808860e-20
 1.12808860e-20
 1.12808860e-20
 4.86968871e-16
)
)
1
(
101
(
 9.88835670e-20
 9.88835670e-20
 9.88835670e-20
 9.88835670e-20
 9.88835670e-20
 9.88835670e-20
 9.88835670e-20
 9.88835670e-20
 9.88835670e-20
 9.88835670e-20
 9.88835670e-20
 9.88835670e-20
 9.88835670e-20
 9.88835670e-20
 9.88835670e-20
 9.88835670e-20
 9.88835670e-20
 9.88835670e-20
 9.88835670e-20
 9.88835670e-20
 9.88835670e-20
 9.88835670e-20
 9.88835670e-20
 9.88835670e-20
 9.88835670e-20
 9.88835670e-20
 9.88835670e-20
 9.88835670e-20
 9.88835670e-20
 9.88835670e-20
 9.88835670e-20
 9.88835670e-20
 9.88835670e-20
 9.88835670e-20
 9.88835670e-20
 9.88835670e-20
 9.88835670e-20
 9.88835670e-20
 9.88835670e-20
 9.88835670e-20
 9.88835670e-20
 9.88835670e-20
 9.88835670e-20
 9.88835670e-20
 9.88835670e-20
 1.45489075e-17
 1.45489075e-17
 1.45489075e-17
 1.11724360e-16
 1.11724360e-16
 1.11724360e-16
 1.11724360e-16
 1.11724360e-16
 1.11724360e-16
 1.11724360e-16
 1.11724360e-16
 1.11724360e-16
 1.11724360e-16
 1.11724360e-16
 1.11724360e-16
 1.11724360e-16
 1.11724360e-16
 1.11724360e-16
 1.11724360e-16
 1.11724360e-16
 6.97904374e-17
 6.97904374e-17
 6.97904374e-17
 6.97904374e-17
 6.97904374e-17
 6.97904374e-17
 6.97904374e-17
 6.97904374e-17
 6.97904374e-17
 6.97904374e-17
 6.97904374e-17
 6.97904374e-17
 9.83294957e-19
 9.83294957e-19
 9.83294957e-19
 9.83294957e-19
 9.83294957e-19
 9.83294957e-19
 1.03107023e-18
 1.03107023e-18
 1.03107023e-18
 1.03107023e-18
 1.03107023e-18
 1.03107023e-18
 1.03107023e-18
 3.44141713e-19
 3.44141713e-19
 3.44141713e-19
 3.44141713e-19
 3.44141713e-19
 3.44141713e-19
 1.33603301e-19
 1.12808860e-20
 1.12808860e-20
 1.12808860e-20
 9.08381546e-22
)
)
1
(
101
(
 6.45713757e-19
 6.45713757e-19
 6.45713757e-19
 6.45713757e-19
 6.45713757e-19
 6.45713757e-19
 6.45713757e-19
 6.45713757e-19
 6.45713757e-19
 6.45713757e-19
 6.45713757e-19
 6.45713757e-19
 6.45713757e-19
 6.45713757e-19
 6.45713757e-19
 6.45713757e-19
 6.45713757e-19
 6.45713757e-19
 6.45713757e-19
 6.45713757e-19
 6.45713757e-19
 6.45713757e-19
 6.45713757e-19
 6.45713757e-19
 6.45713757e-19
 6.45713757e-19
 6.45713757e-19
 6.45713757e-19
 6.45713757e-19
 6.45713757e-19
 6.45713757e-19
 6.45713757e-19
 6.45713757e-19
 6.45713757e-19
 6.45713757e-19
 6.45713757e-19
 6.45713757e-19
 6.45713757e-19
 6.45713757e-19
 6.45713757e-19
 6.45713757e-19
 6.45713757e-19
 6.45713757e-19
 6.45713757e-19
 1.45489075e-17
 1.45489075e-17
 1.45489075e-17
 1.45489075e-17
 1.45489075e-17
 1.45489075e-17
 1.11724360e-16
 1.11724360e-16
 1.11724360e-16
 1.11724360e-16
 1.11724360e-16
 1.11724360e-16
 1.11724360e-16
 1.11724360e-16
 1.11724360e-16
 1.11724360e-16
 1.11724360e-16
 1.11724360e-16
 1.11724360e-16
 1.11724360e-16
 1.11724360e-16
 1.11724360e-16
 6.97904374e-17
 6.97904374e-17
 6.97904374e-17
 6.97904374e-17
 6.97904374e-17
 6.97904374e-17
 6.97904374e-17
 6.97904374e-17
 6.97904374e-17
 6.97904374e-17
 6.97904374e-17
 6.97904374e-17
 9.83294957e-19
 9.83294957e-19
 9.83294957e-19
 9.83294957e-19
 9.83294957e-19
 9.83294957e-19
 9.83294957e-19
 1.03107023e-18
 1.03107023e-18
 1.03107023e-18
 1.03107023e-18
 1.03107023e-18
 1.03107023e-18
 3.44141713e-19
 3.44141713e-19
 3.44141713e-19
 3.44141713e-19
 3.44141713e-19
 3.44141713e-19
 1.33603301e-19
 1.33603301e-19
 1.05638461e-18
 1.05638461e-18
)
)
1
(
101
(
 1.47210125e-18
 1.47210125e-18
 1.47210125e-18
 1.47210125e-18
 1.47210125e-18
 1.47210125e-18
 1.47210125e-18
 1.47210125e-18
 1.47210125e-18
 1.47210125e-18
 1.47210125e-18
 1.47210125e-18
 1.47210125e-18
 1.47210125e-18
 1.47210125e-18
 1.47210125e-18
 1.47210125e-18
 1.47210125e-18
 1.47210125e-18
 1.47210125e-18
 1.47210125e-18
 1.47210125e-18
 1.47210125e-18
 1.47210125e-18
 1.47210125e-18
 1.47210125e-18
 1.47210125e-18
 1.47210125e-18
 1.47210125e-18
 1.47210125e-18
 1.47210125e-18
 1.47210125e-18
 1.47210125e-18
 1.47210125e-18
 1.47210125e-18
 1.47210125e-18
 1.47210125e-18
 1.47210125e-18
 1.47210125e-18
 1.47210125e-18
 1.47210125e-18
 1.47210125e-18
 1.47210125e-18
 1.47210125e-18
 3.40187095e-17
 1.45489075e-17
 1.45489075e-17
 1.45489075e-17
 1.45489075e-17
 1.45489075e-17
 1.45489075e-17
 1.11724360e-16
 1.11724360e-16
 1.11724360e-16
 1.11724360e-16
 1.11724360e-16
 1.11724360e-16
 1.11724360e-16
 1.11724360e-16
 1.11724360e-16
 1.11724360e-16
 1.11724360e-16
 1.11724360e-16
 1.11724360e-16
 1.11724360e-16
 1.11724360e-16
 1.11724360e-16
 6.97904374e-17
 6.97904374e-17
 6.97904374e-17
 6.97904374e-17
 6.97904374e-17
 6.97904374e-17
 6.97904374e-17
 6.97904374e-17
 6.97904374e-17
 6.97904374e-17
 6.97904374e-17
 6.97904374e-17
 3.02790660e-18
 9.83294957e-19
 9.83294957e-19
 9.83294957e-19
 9.83294957e-19
 9.83294957e-19
 9.83294957e-19
 1.03107023e-18
 1.03107023e-18
 1.03107023e-18
 1.03107023e-18
 1.03107023e-18
 1.03107023e-18
 1.03107023e-18
 3.44141713e-19
 3.44141713e-19
 3.44141713e-19
 3.44141713e-19
 3.44141713e-19
 1.33603301e-19
 5.93014162e-18
 5.93014162e-18
)
)
1
(
101
(
 4.00447798e-18
 4.00447798e-18
 4.00447798e-18
 4.00447798e-18
 4.00447798e-18
 4.00447798e-18
 4.00447798e-18
 4.00447798e-18
 4.00447798e-18
 4.00447798e-18
 4.00447798e-18
 4.00447798e-18
 4.00447798e-18
 4.00447798e-18
 4.00447798e-18
 4.00447798e-18
 4.00447798e-18
 4.00447798e-18
 4.00447798e-18
 4.00447798e-18
 4.00447798e-18
 4.00447798e-18
 4.00447798e-18
 4.00447798e-18
 4.00447798e-18
 4.00447798e-18
 4.00447798e-18
 4.00447798e-18
 4.00447798e-18
 4.00447798e-18
 4.00447798e-18
 4.00447798e-18
 4.00447798e-18
 4.00447798e-18
 4.00447798e-18
 4.00447798e-18
 4.00447798e-18
 4.00447798e-18
 4.00447798e-18
 4.00447798e-18
 4.00447798e-18
 4.00447798e-18
 4.00447798e-18
 4.00447798e-18
 3.40187095e-17
 3.40187095e-17
 3.40187095e-17
 1.45489075e-17
 1.45489075e-17
 1.45489075e-17
 1.45489075e-17
 1.45489075e-17
 1.45489075e-17
 1.11724360e-16
 1.11724360e-16
 1.11724360e-16
 1.11724360e-16
 1.11724360e-16
 1.11724360e-16
 1.11724360e-16
 1.11724360e-16
 1.11724360e-16
 1.11724360e-16
 1.11724360e-16
 1.11724360e-16
 1.11724360e-16
 1.11724360e-16
 1.11724360e-16
 6.97904374e-17
 6.97904374e-17
 6.97904374e-17
 6.97904374e-17
 6.97904374e-17
 6.97904374e-17
 6.97904374e-17
 6.97904374e-17
 6.97904374e-17
 6.97904374e-17
 6.97904374e-17
 6.97904374e-17
 3.02790660e-18
 9.83294957e-19
 9.83294957e-19
 9.83294957e-19
 9.83294957e-19
 9.83294957e-19
 9.83294957e-19
 9.83294957e-19
 1.03107023e-18
 1.03107023e-18
 1.03107023e-18
 1.03107023e-18
 1.03107023e-18
 1.03107023e-18
 7.60178326e-19
 3.44141713e-19
 3.44141713e-19
 3.44141713e-19
 3.93247545e-20
 3.93247545e-20
 5.93014162e-18
)
)
1
(
101
(
 6.52292234e-18
 6.52292234e-18
 6.52292234e-18
 6.52292234e-18
 6.52292234e-18
 6.52292234e-18
 6.52292234e-18
 6.52292234e-18
 6.52292234e-18
 6.52292234e-18
 6.52292234e-18
 6.52292234e-18
 6.52292234e-18
 6.52292234e-18
 6.52292234e-18
 6.52292234e-18
 6.52292234e-18
 6.52292234e-18
 6.52292234e-18
 6.52292234e-18
 6.52292234e-18
 6.52292234e-18
 6.52292234e-18
 6.52292234e-18
 6.52292234e-18
 6.52292234e-18
 6.52292234e-18
 6.52292234e-18
 6.52292234e-18
 6.52292234e-18
 6.52292234e-18
 6.52292234e-18
 6.52292234e-18
 6.52292234e-18
 6.52292234e-18
 6.52292234e-18
 6.52292234e-18
 6.52292234e-18
 6.52292234e-18
 6.52292234e-18
 6.52292234e-18
 6.52292234e-18
 7.99701125e-16
 3.40187095e-17
 3.40187095e-17
 3.40187095e-17
 3.40187095e-17
 3.40187095e-17
 1.45489075e-17
 1.45489075e-17
 1.45489075e-17
 1.45489075e-17
 1.45489075e-17
 1.45489075e-17
 1.11724360e-16
 1.11724360e-16
 1.11724360e-16
 1.11724360e-16
 1.11724360e-16
 1.11724360e-16
 1.11724360e-16
 1.11724360e-16
 1.11724360e-16
 1.11724360e-16
 1.11724360e-16
 1.11724360e-16
 1.11724360e-16
 1.11724360e-16
 1.11724360e-16
 1.11724360e-16
 6.97904374e-17
 6.97904374e-17
 6.97904374e-17
 6.97904374e-17
 6.97904374e-17
 6.97904374e-17
 6.97904374e-17
 6.97904374e-17
 6.97904374e-17
 6.97904374e-17
 6.97904374e-17
 3.02790660e-18
 3.02790660e-18
 9.83294957e-19
 9.83294957e-19
 9.83294957e-19
 9.83294957e-19
 9.83294957e-19
 9.83294957e-19
 1.03107023e-18
 1.03107023e-18
 1.03107023e-18
 1.03107023e-18
 1.03107023e-18
 1.03107023e-18
 7.60178326e-19
 7.60178326e-19
 1.64839631e-19
 1.64839631e-19
 3.93247545e-20
 3.93247545e-20
)
)
1
(
101
(
 1.86854119e-17
 1.86854119e-17
 1.86854119e-17
 1.86854119e-17
 1.86854119e-17
 1.86854119e-17
 1.86854119e-17
 1.86854119e-17
 1.86854119e-17
 1.86854119e-17
 1.86854119e-17
 1.86854119e-17
 1.86854119e-17
 1.86854119e-17
 1.86854119e-17
 1.86854119e-17
 1.86854119e-17
 1.86854119e-17
 1.86854119e-17
 1.86854119e-17
 1.86854119e-17
 1.86854119e-17
 1.86854119e-17
 1.86854119e-17
 1.86854119e-17
 1.86854119e-17
 1.86854119e-17
 1.86854119e-17
 1.86854119e-17
 1.86854119e-17
 1.86854119e-17
 1.86854119e-17
 1.86854119e-17
 7.99701125e-16
 7.99701125e-16
 7.99701125e-16
 7.99701125e-16
 7.99701125e-16
 7.99701125e-16
 7.99701125e-16
 7.99701125e-16
 7.99701125e-16
 7.99701125e-16
 3.40187095e-17
 3.40187095e-17
 3.40187095e-17
 3.40187095e-17
 3.40187095e-17
 3.40187095e-17
 1.45489075e-17
 1.45489075e-17
 1.45489075e-17
 1.45489075e-17
 1.45489075e-17
 1.45489075e-17
 1.45489075e-17
 1.11724360e-16
 1.11724360e-16
 1.11724360e-16
 1.11724360e-16
 1.11724360e-16
 1.11724360e-16
 1.11724360e-16
 1.11724360e-16
 1.11724360e-16
 1.11724360e-16
 1.11724360e-16
 1.11724360e-16
 1.11724360e-16
 1.11724360e-16
 1.11724360e-16
 6.97904374e-17
 6.97904374e-17
 6.97904374e-17
 6.97904374e-17
 6.97904374e-17
 6.97904374e-17
 6.97904374e-17
 6.97904374e-17
 6.97904374e-17
 6.97904374e-17
 6.97904374e-17
 3.02790660e-18
 3.02790660e-18
 9.83294957e-19
 9.83294957e-19
 9.83294957e-19
 9.83294957e-19
 9.83294957e-19
 9.83294957e-19
 9.83294957e-19
 1.03107023e-18
 1.03107023e-18
 1.03107023e-18
 1.03107023e-18
 1.03107023e-18
 7.60178326e-19
 7.60178326e-19
 1.64839631e-19
 1.64839631e-19
 3.93247545e-20
)
)
1
(
101
(
 2.82779098e-17
 2.82779098e-17
 2.82779098e-17
 2.82779098e-17
 2.82779098e-17
 2.82779098e-17
 2.82779098e-17
 2.82779098e-17
 2.82779098e-17
 2.82779098e-17
 2.82779098e-17
 2.82779098e-17
 2.82779098e-17
 2.82779098e-17
 2.82779098e-17
 2.82779098e-17
 2.82779098e-17
 2.82779098e-17
 2.82779098e-17
 2.82779098e-17
 2.82779098e-17
 2.82779098e-17
 2.82779098e-17
 2.82779098e-17
 2.82779098e-17
 2.82779098e-17
 7.99701125e-16
 7.99701125e-16
 7.99701125e-16
 7.99701125e-16
 7.99701125e-16
 7.99701125e-16
 7.99701125e-16
 7.99701125e-16
 7.99701125e-16
 7.99701125e-16
 7.99701125e-16
 7.99701125e-16
 7.99701125e-16
 7.99701125e-16
 7.99701125e-16
 7.99701125e-16
 7.99701125e-16
 3.40187095e-17
 3.40187095e-17
 3.40187095e-17
 3.40187095e-17
 3.40187095e-17
 3.40187095e-17
 3.40187095e-17
 1.45489075e-17
 1.45489075e-17
 1.45489075e-17
 1.45489075e-17
 1.45489075e-17
 1.45489075e-17
 1.45489075e-17
 1.11724360e-16
 1.11724360e-16
 1.11724360e-16
 1.11724360e-16
 1.11724360e-16
 1.11724360e-16
 1.11724360e-16
 1.11724360e-16
 1.11724360e-16
 1.11724360e-16
 1.11724360e-16
 1.11724360e-16
 1.11724360e-16
 1.11724360e-16
 1.11724360e-16
 6.97904374e-17
 6.97904374e-17
 6.97904374e-17
 6.97904374e-17
 6.97904374e-17
 6.97904374e-17
 6.97904374e-17
 6.97904374e-17
 6.97904374e-17
 6.97904374e-17
 6.97904374e-17
 3.02790660e-18
 3.02790660e-18
 3.02790660e-18
 9.83294957e-19
 9.83294957e-19
 9.83294957e-19
 9.83294957e-19
 9.83294957e-19
 9.83294957e-19
 1.88475974e-18
 1.03107023e-18
 1.03107023e-18
 1.03107023e-18
 1.67158569e-19
 1.67158569e-19
 1.67158569e-19
 1.64839631e-19
 1.64839631e-19
)
)
1
(
101
(
 4.49671626e-17
 4.49671626e-17
 4.49671626e-17
 4.49671626e-17
 4.49671626e-17
 4.49671626e-17
 4.49671626e-17
 4.49671626e-17
 4.49671626e-17
 4.49671626e-17
 4.49671626e-17
 4.49671626e-17
 4.49671626e-17
 4.49671626e-17
 4.49671626e-17
 4.49671626e-17
 4.49671626e-17
 4.49671626e-17
 4.49671626e-17
 7.99701125e-16
 7.99701125e-16
 7.99701125e-16
 7.99701125e-16
 7.99701125e-16
 7.99701125e-16
 7.99701125e-16
 7.99701125e-16
 7.99701125e-16
 7.99701125e-16
 7.99701125e-16
 7.99701125e-16
 7.99701125e-16
 7.99701125e-16
 7.99701125e-16
 7.99701125e-16
 7.99701125e-16
 7.99701125e-16
 7.99701125e-16
 7.99701125e-16
 7.99701125e-16
 7.99701125e-16
 7.99701125e-16
 3.40187095e-17
 3.40187095e-17
 3.40187095e-17
 3.40187095e-17
 3.40187095e-17
 3.40187095e-17
 3.40187095e-17
 3.40187095e-17
 3.40187095e-17
 1.45489075e-17
 1.45489075e-17
 1.45489075e-17
 1.45489075e-17
 1.45489075e-17
 1.45489075e-17
 1.45489075e-17
 1.45489075e-17
 1.11724360e-16
 1.11724360e-16
 1.11724360e-16
 1.11724360e-16
 1.11724360e-16
 1.11724360e-16
 1.11724360e-16
 1.11724360e-16
 1.11724360e-16
 1.11724360e-16
 1.11724360e-16
 1.11724360e-16
 1.11724360e-16
 1.11724360e-16
 6.97904374e-17
 6.97904374e-17
 6.97904374e-17
 6.97904374e-17
 6.97904374e-17
 6.97904374e-17
 6.97904374e-17
 6.97904374e-17
 6.97904374e-17
 6.97904374e-17
 6.97904374e-17
 3.02790660e-18
 3.02790660e-18
 3.02790660e-18
 9.83294957e-19
 9.83294957e-19
 9.83294957e-19
 9.83294957e-19
 9.83294957e-19
 9.83294957e-19
 1.88475974e-18
 1.88475974e-18
 2.67958591e-19
 2.67958591e-19
 1.67158569e-19
 1.67158569e-19
 1.67158569e-19
 1.67158569e-19
)
)
1
(
101
(
 1.41595702e-16
 1.41595702e-16
 1.41595702e-16
 1.41595702e-16
 1.41595702e-16
 1.41595702e-16
 1.41595702e-16
 1.41595702e-16
 1.41595702e-16
 1.41595702e-16
 1.41595702e-16
 1.41595702e-16
 1.41595702e-16
 1.41595702e-16
 7.99701125e-16
 7.99701125e-16
 7.99701125e-16
 7.99701125e-16
 7.99701125e-16
 7.99701125e-16
 7.99701125e-16
 7.99701125e-16
 7.99701125e-16
 7.99701125e-16
 7.99701125e-16
 7.99701125e-16
 7.99701125e-16
 7.99701125e-16
 7.99701125e-16
 7.99701125e-16
 7.99701125e-16
 7.99701125e-16
 7.99701125e-16
 7.99701125e-16
 7.99701125e-16
 7.99701125e-16
 7.99701125e-16
 7.99701125e-16
 7.99701125e-16
 7.99701125e-16
 7.99701125e-16
 7.99701125e-16
 3.40187095e-17
 3.40187095e-17
 3.40187095e-17
 3.40187095e-17
 3.40187095e-17
 3.40187095e-17
 3.40187095e-17
 3.40187095e-17
 3.40187095e-17
 3.40187095e-17
 1.45489075e-17
 1.45489075e-17
 1.45489075e-17
 1.45489075e-17
 1.45489075e-17
 1.45489075e-17
 1.45489075e-17
 1.45489075e-17
 1.11724360e-16
 1.11724360e-16
 1.11724360e-16
 1.11724360e-16
 1.11724360e-16
 1.11724360e-16
 1.11724360e-16
 1.11724360e-16
 1.11724360e-16
 1.11724360e-16
 1.11724360e-16
 1.11724360e-16
 1.11724360e-16
 1.11724360e-16
 1.11724360e-16
 6.97904374e-17
 6.97904374e-17
 6.97904374e-17
 6.97904374e-17
 6.97904374e-17
 6.97904374e-17
 6.97904374e-17
 6.97904374e-17
 6.97904374e-17
 6.97904374e-17
 3.02790660e-18
 3.02790660e-18
 3.02790660e-18
 3.02790660e-18
 9.83294957e-19
 9.83294957e-19
 9.83294957e-19
 9.83294957e-19
 9.83294957e-19
 1.88475974e-18
 1.88475974e-18
 2.67958591e-19
 2.67958591e-19
 1.67158569e-19
 1.67158569e-19
 1.67158569e-19
)
)
1
(
101
(
 1.74753031e-16
 1.74753031e-16
 1.74753031e-16
 1.74753031e-16
 1.74753031e-16
 1.74753031e-16
 1.74753031e-16
 1.74753031e-16
 1.74753031e-16
 7.99701125e-16
 7.99701125e-16
 7.99701125e-16
 7.99701125e-16
 7.99701125e-16
 7.99701125e-16
 7.99701125e-16
 7.99701125e-16
 7.99701125e-16
 7.99701125e-16
 7.99701125e-16
 7.99701125e-16
 7.99701125e-16
 7.99701125e-16
 7.99701125e-16
 7.99701125e-16
 7.99701125e-16
 7.99701125e-16
 7.99701125e-16
 7.99701125e-16
 7.99701125e-16
 7.99701125e-16
 7.99701125e-16
 7.99701125e-16
 7.99701125e-16
 7.99701125e-16
 7.99701125e-16
 7.99701125e-16
 7.99701125e-16
 7.99701125e-16
 7.99701125e-16
 7.99701125e-16
 7.99701125e-16
 3.40187095e-17
 3.40187095e-17
 3.40187095e-17
 3.40187095e-17
 3.40187095e-17
 3.40187095e-17
 3.40187095e-17
 3.40187095e-17
 3.40187095e-17
 3.40187095e-17
 3.40187095e-17
 3.40187095e-17
 1.45489075e-17
 1.45489075e-17
 1.45489075e-17
 1.45489075e-17
 1.45489075e-17
 1.45489075e-17
 1.45489075e-17
 1.45489075e-17
 1.11724360e-16
 1.11724360e-16
 1.11724360e-16
 1.11724360e-16
 1.11724360e-16
 1.11724360e-16
 1.11724360e-16
 1.11724360e-16
 1.11724360e-16
 1.11724360e-16
 1.11724360e-16
 1.11724360e-16
 1.11724360e-16
 1.11724360e-16
 6.97904374e-17
 6.97904374e-17
 6.97904374e-17
 6.97904374e-17
 6.97904374e-17
 6.97904374e-17
 6.97904374e-17
 6.97904374e-17
 6.97904374e-17
 6.97904374e-17
 3.02790660e-18
 3.02790660e-18
 3.02790660e-18
 3.02790660e-18
 1.05466532e-18
 9.83294957e-19
 9.83294957e-19
 9.83294957e-19
 9.83294957e-19
 1.88475974e-18
 1.88475974e-18
 2.67958591e-19
 2.67958591e-19
 1.67158569e-19
 1.67158569e-19
)
)
1
(
101
(
 2.89459121e-16
 2.89459121e-16
 2.89459121e-16
 2.89459121e-16
 2.89459121e-16
 2.89459121e-16
 7.99701125e-16
 7.99701125e-16
 7.99701125e-16
 7.99701125e-16
 7.99701125e-16
 7.99701125e-16
 7.99701125e-16
 7.99701125e-16
 7.99701125e-16
 7.99701125e-16
 7.99701125e-16
 7.99701125e-16
 7.99701125e-16
 7.99701125e-16
 7.99701125e-16
 7.99701125e-16
 7.99701125e-16
 7.99701125e-16
 7.99701125e-16
 7.99701125e-16
 7.99701125e-16
 7.99701125e-16
 7.99701125e-16
 7.99701125e-16
 7.99701125e-16
 7.99701125e-16
 7.99701125e-16
 7.99701125e-16
 7.99701125e-16
 7.99701125e-16
 7.99701125e-16
 7.99701125e-16
 7.99701125e-16
 7.99701125e-16
 7.99701125e-16
 7.99701125e-16
 3.40187095e-17
 3.40187095e-17
 3.40187095e-17
 3.40187095e-17
 3.40187095e-17
 3.40187095e-17
 3.40187095e-17
 3.40187095e-17
 3.40187095e-17
 3.40187095e-17
 3.40187095e-17
 3.40187095e-17
 3.40187095e-17
 1.45489075e-17
 1.45489075e-17
 1.45489075e-17
 1.45489075e-17
 1.45489075e-17
 1.45489075e-17
 1.45489075e-17
 1.45489075e-17
 1.11724360e-16
 1.11724360e-16
 1.11724360e-16
 1.11724360e-16
 1.11724360e-16
 1.11724360e-16
 1.11724360e-16
 1.11724360e-16
 1.11724360e-16
 1.11724360e-16
 1.11724360e-16
 1.11724360e-16
 1.11724360e-16
 1.11724360e-16
 6.97904374e-17
 6.97904374e-17
 6.97904374e-17
 6.97904374e-17
 6.97904374e-17
 6.97904374e-17
 6.97904374e-17
 6.97904374e-17
 6.97904374e-17
 6.97904374e-17
 3.02790660e-18
 3.02790660e-18
 3.02790660e-18
 3.02790660e-18
 1.05466532e-18
 1.05466532e-18
 6.92762508e-19
 6.92762508e-19
 6.92762508e-19
 1.88475974e-18
 1.88475974e-18
 2.67958591e-19
 2.67958591e-19
 1.67158569e-19
)
)
1
(
101
(
 5.19937641e-16
 5.19937641e-16
 5.19937641e-16
 7.99701125e-16
 7.99701125e-16
 7.99701125e-16
 7.99701125e-16
 7.99701125e-16
 7.99701125e-16
 7.99701125e-16
 7.99701125e-16
 7.99701125e-16
 7.99701125e-16
 7.99701125e-16
 7.99701125e-16
 7.99701125e-16
 7.99701125e-16
 7.99701125e-16
 7.99701125e-16
 7.99701125e-16
 7.99701125e-16
 7.99701125e-16
 7.99701125e-16
 7.99701125e-16
 7.99701125e-16
 7.99701125e-16
 7.99701125e-16
 7.99701125e-16
 7.99701125e-16
 7.99701125e-16
 7.99701125e-16
 7.99701125e-16
 7.99701125e-16
 7.99701125e-16
 7.99701125e-16
 7.99701125e-16
 7.99701125e-16
 7.99701125e-16
 7.99701125e-16
 7.99701125e-16
 7.99701125e-16
 2.88803002e-17
 3.40187095e-17
 3.40187095e-17
 3.40187095e-17
 3.40187095e-17
 3.40187095e-17
 3.40187095e-17
 3.40187095e-17
 3.40187095e-17
 3.40187095e-17
 3.40187095e-17
 3.40187095e-17
 3.40187095e-17
 3.40187095e-17
 3.40187095e-17
 1.45489075e-17
 1.45489075e-17
 1.45489075e-17
 1.45489075e-17
 1.45489075e-17
 1.45489075e-17
 1.45489075e-17
 1.45489075e-17
 1.45489075e-17
 1.11724360e-16
 1.11724360e-16
 1.11724360e-16
 1.11724360e-16
 1.11724360e-16
 1.11724360e-16
 1.11724360e-16
 1.11724360e-16
 1.11724360e-16
 1.11724360e-16
 1.11724360e-16
 1.11724360e-16
 1.11724360e-16
 6.97904374e-17
 6.97904374e-17
 6.97904374e-17
 6.97904374e-17
 6.97904374e-17
 6.97904374e-17
 6.97904374e-17
 6.97904374e-17
 6.97904374e-17
 6.97904374e-17
 3.02790660e-18
 3.02790660e-18
 3.02790660e-18
 3.02790660e-18
 1.05466532e-18
 1.05466532e-18
 6.92762508e-19
 6.92762508e-19
 6.92762508e-19
 6.92762508e-19
 1.88475974e-18
 2.67958591e-19
 2.67958591e-19
)
)
1
(
101
(
 1.74355211e-16
 1.74355211e-16
 7.99701125e-16
 7.99701125e-16
 7.99701125e-16
 7.99701125e-16
 7.99701125e-16
 7.99701125e-16
 7.99701125e-16
 7.99701125e-16
 7.99701125e-16
 7.99701125e-16
 7.99701125e-16
 7.99701125e-16
 7.99701125e-16
 7.99701125e-16
 7.99701125e-16
 7.99701125e-16
 7.99701125e-16
 7.99701125e-16
 7.99701125e-16
 7.99701125e-16
 7.99701125e-16
 7.99701125e-16
 7.99701125e-16
 7.99701125e-16
 7.99701125e-16
 7.99701125e-16
 7.99701125e-16
 7.99701125e-16
 7.99701125e-16
 7.99701125e-16
 7.99701125e-16
 7.99701125e-16
 7.99701125e-16
 7.99701125e-16
 7.99701125e-16
 7.99701125e-16
 7.99701125e-16
 7.99701125e-16
 7.99701125e-16
 2.88803002e-17
 2.88803002e-17
 3.40187095e-17
 3.40187095e-17
 3.40187095e-17
 3.40187095e-17
 3.40187095e-17
 3.40187095e-17
 3.40187095e-17
 3.40187095e-17
 3.40187095e-17
 3.40187095e-17
 3.40187095e-17
 3.40187095e-17
 3.40187095e-17
 3.40187095e-17
 1.45489075e-17
 1.45489075e-17
 1.45489075e-17
 1.45489075e-17
 1.45489075e-17
 1.45489075e-17
 1.45489075e-17
 1.45489075e-17
 1.45489075e-17
 1.11724360e-16
 1.11724360e-16
 1.11724360e-16
 1.11724360e-16
 1.11724360e-16
 1.11724360e-16
 1.11724360e-16
 1.11724360e-16
 1.11724360e-16
 1.11724360e-16
 1.11724360e-16
 1.11724360e-16
 1.11724360e-16
 1.11724360e-16
 6.97904374e-17
 6.97904374e-17
 6.97904374e-17
 6.97904374e-17
 6.97904374e-17
 6.97904374e-17
 6.97904374e-17
 6.97904374e-17
 1.86523014e-18
 3.02790660e-18
 3.02790660e-18
 3.02790660e-18
 1.69532456e-22
 1.69532456e-22
 1.69532456e-22
 6.92762508e-19
 6.92762508e-19
 6.92762508e-19
 6.92762508e-19
 6.92762508e-19
 2.67958591e-19
)
)
1
(
101
(
 1.93612547e-24
 7.99701125e-16
 7.99701125e-16
 7.99701125e-16
 7.99701125e-16
 7.99701125e-16
 7.99701125e-16
 7.99701125e-16
 7.99701125e-16
 7.99701125e-16
 7.99701125e-16
 7.99701125e-16
 7.99701125e-16
 7.99701125e-16
 7.99701125e-16
 7.99701125e-16
 7.99701125e-16
 7.99701125e-16
 7.99701125e-16
 7.99701125e-16
 7.99701125e-16
 7.99701125e-16
 7.99701125e-16
 7.99701125e-16
 7.99701125e-16
 7.99701125e-16
 7.99701125e-16
 7.99701125e-16
 7.99701125e-16
 7.99701125e-16
 7.99701125e-16
 7.99701125e-16
 7.99701125e-16
 7.99701125e-16
 7.99701125e-16
 7.99701125e-16
 7.99701125e-16
 7.99701125e-16
 7.99701125e-16
 7.99701125e-16
 2.88803002e-17
 2.88803002e-17
 2.88803002e-17
 2.88803002e-17
 3.40187095e-17
 3.40187095e-17
 3.40187095e-17
 3.40187095e-17
 3.40187095e-17
 3.40187095e-17
 3.40187095e-17
 3.40187095e-17
 3.40187095e-17
 3.40187095e-17
 3.40187095e-17
 3.40187095e-17
 3.40187095e-17
 3.40187095e-17
 1.45489075e-17
 1.45489075e-17
 1.45489075e-17
 1.45489075e-17
 1.45489075e-17
 1.45489075e-17
 1.45489075e-17
 1.45489075e-17
 1.45489075e-17
 1.45489075e-17
 1.11724360e-16
 1.11724360e-16
 1.11724360e-16
 1.11724360e-16
 1.11724360e-16
 1.11724360e-16
 1.11724360e-16
 1.11724360e-16
 1.11724360e-16
 1.11724360e-16
 1.11724360e-16
 1.11724360e-16
 1.11724360e-16
 5.72967863e-18
 6.97904374e-17
 6.97904374e-17
 6.97904374e-17
 6.97904374e-17
 6.97904374e-17
 6.97904374e-17
 6.97904374e-17
 1.86523014e-18
 1.86523014e-18
 1.12268334e-19
 1.12268334e-19
 1.69532456e-22
 1.69532456e-22
 1.69532456e-22
 1.69532456e-22
 6.92762508e-19
 6.92762508e-19
 6.92762508e-19
 6.92762508e-19
)
)
1
(
101
(
 1.93612547e-24
 1.39787504e-15
 1.39787504e-15
 1.39787504e-15
 1.39787504e-15
 1.39787504e-15
 1.39787504e-15
 1.39787504e-15
 1.39787504e-15
 1.39787504e-15
 1.39787504e-15
 1.39787504e-15
 1.39787504e-15
 1.39787504e-15
 1.39787504e-15
 1.39787504e-15
 1.39787504e-15
 1.39787504e-15
 1.39787504e-15
 1.39787504e-15
 1.39787504e-15
 1.39787504e-15
 1.39787504e-15
 1.39787504e-15
 1.39787504e-15
 1.39787504e-15
 1.39787504e-15
 1.39787504e-15
 1.39787504e-15
 1.39787504e-15
 1.39787504e-15
 1.39787504e-15
 1.39787504e-15
 1.39787504e-15
 1.39787504e-15
 1.39787504e-15
 1.39787504e-15
 1.39787504e-15
 1.39787504e-15
 1.39787504e-15
 2.88803002e-17
 2.88803002e-17
 2.88803002e-17
 2.88803002e-17
 2.88803002e-17
 3.40187095e-17
 3.40187095e-17
 3.40187095e-17
 3.40187095e-17
 3.40187095e-17
 3.40187095e-17
 3.40187095e-17
 3.40187095e-17
 3.40187095e-17
 3.40187095e-17
 3.40187095e-17
 3.40187095e-17
 3.40187095e-17
 3.40187095e-17
 1.45489075e-17
 1.45489075e-17
 1.45489075e-17
 1.45489075e-17
 1.45489075e-17
 1.45489075e-17
 1.45489075e-17
 1.45489075e-17
 1.45489075e-17
 1.45489075e-17
 1.11724360e-16
 1.11724360e-16
 1.11724360e-16
 1.11724360e-16
 1.11724360e-16
 1.11724360e-16
 1.11724360e-16
 1.11724360e-16
 1.11724360e-16
 1.11724360e-16
 1.11724360e-16
 1.11724360e-16
 1.11724360e-16
 5.72967863e-18
 5.72967863e-18
 6.97904374e-17
 6.97904374e-17
 6.97904374e-17
 6.97904374e-17
 6.97904374e-17
 1.86523014e-18
 1.86523014e-18
 1.86523014e-18
 1.12268334e-19
 1.12268334e-19
 1.69532456e-22
 1.69532456e-22
 1.69532456e-22
 1.69532456e-22
 1.69532456e-22
 6.92762508e-19
 6.92762508e-19
)
)
1
(
101
(
 2.53738969e-15
 2.53738969e-15
 2.53738969e-15
 2.53738969e-15
 2.53738969e-15
 2.53738969e-15
 2.53738969e-15
 2.53738969e-15
 2.53738969e-15
 2.53738969e-15
 2.53738969e-15
 2.53738969e-15
 2.53738969e-15
 2.53738969e-15
 2.53738969e-15
 2.53738969e-15
 2.53738969e-15
 2.53738969e-15
 2.53738969e-15
 2.53738969e-15
 2.53738969e-15
 2.53738969e-15
 2.53738969e-15
 2.53738969e-15
 2.53738969e-15
 2.53738969e-15
 2.53738969e-15
 2.53738969e-15
 2.53738969e-15
 2.53738969e-15
 2.53738969e-15
 2.53738969e-15
 2.53738969e-15
 2.53738969e-15
 2.53738969e-15
 2.53738969e-15
 2.53738969e-15
 2.53738969e-15
 2.53738969e-15
 2.53738969e-15
 2.88803002e-17
 2.88803002e-17
 2.88803002e-17
 2.88803002e-17
 2.88803002e-17
 2.88803002e-17
 3.40187095e-17
 3.40187095e-17
 3.40187095e-17
 3.40187095e-17
 3.40187095e-17
 3.40187095e-17
 3.40187095e-17
 3.40187095e-17
 3.40187095e-17
 3.40187095e-17
 3.40187095e-17
 3.40187095e-17
 3.40187095e-17
 3.40187095e-17
 3.40187095e-17
 1.45489075e-17
 1.45489075e-17
 1.45489075e-17
 1.45489075e-17
 1.45489075e-17
 1.45489075e-17
 1.45489075e-17
 1.45489075e-17
 1.45489075e-17
 1.45489075e-17
 1.11724360e-16
 1.11724360e-16
 1.11724360e-16
 1.11724360e-16
 1.11724360e-16
 1.11724360e-16
 1.11724360e-16
 1.11724360e-16
 1.11724360e-16
 1.11724360e-16
 1.11724360e-16
 1.11724360e-16
 5.72967863e-18
 5.72967863e-18
 5.72967863e-18
 6.97904374e-17
 6.97904374e-17
 6.97904374e-17
 6.97904374e-17
 1.86523014e-18
 1.86523014e-18
 1.86523014e-18
 1.12268334e-19
 1.12268334e-19
 1.69532456e-22
 1.69532456e-22
 1.69532456e-22
 1.69532456e-22
 1.69532456e-22
 1.69532456e-22
)
)
1
(
101
(
 4.21838419e-15
 4.21838419e-15
 4.21838419e-15
 4.21838419e-15
 4.21838419e-15
 4.21838419e-15
 4.21838419e-15
 4.21838419e-15
 4.21838419e-15
 4.21838419e-15
 4.21838419e-15
 4.21838419e-15
 4.21838419e-15
 4.21838419e-15
 4.21838419e-15
 4.21838419e-15
 4.21838419e-15
 4.21838419e-15
 4.21838419e-15
 4.21838419e-15
 4.21838419e-15
 4.21838419e-15
 4.21838419e-15
 4.21838419e-15
 4.21838419e-15
 4.21838419e-15
 4.21838419e-15
 4.21838419e-15
 4.21838419e-15
 4.21838419e-15
 4.21838419e-15
 4.21838419e-15
 4.21838419e-15
 4.21838419e-15
 4.21838419e-15
 4.21838419e-15
 4.21838419e-15
 4.21838419e-15
 4.21838419e-15
 2.88803002e-17
 2.88803002e-17
 2.88803002e-17
 2.88803002e-17
 2.88803002e-17
 2.88803002e-17
 2.88803002e-17
 2.88803002e-17
 2.88803002e-17
 3.40187095e-17
 3.40187095e-17
 3.40187095e-17
 3.40187095e-17
 3.40187095e-17
 3.40187095e-17
 3.40187095e-17
 3.40187095e-17
 3.40187095e-17
 3.40187095e-17
 3.40187095e-17
 3.40187095e-17
 3.40187095e-17
 3.40187095e-17
 1.45489075e-17
 1.45489075e-17
 1.45489075e-17
 1.45489075e-17
 1.45489075e-17
 1.45489075e-17
 1.45489075e-17
 1.45489075e-17
 1.45489075e-17
 1.45489075e-17
 1.11724360e-16
 1.11724360e-16
 1.11724360e-16
 1.11724360e-16
 1.11724360e-16
 1.11724360e-16
 1.11724360e-16
 1.11724360e-16
 1.11724360e-16
 1.11724360e-16
 1.11724360e-16
 1.11724360e-16
 5.72967863e-18
 5.72967863e-18
 5.72967863e-18
 5.72967863e-18
 3.96120458e-18
 3.96120458e-18
 3.96120458e-18
 1.86523014e-18
 1.86523014e-18
 1.86523014e-18
 1.12268334e-19
 1.12268334e-19
 1.69532456e-22
 1.69532456e-22