/*--------------------------------*- C++ -*----------------------------------*\
| =========                 |                                                 |
| \\      /  F ield        | OpenFOAM: The Open Source CFD Toolbox           |
|  \\    /   O peration    | Version:  7                                     |
|   \\  /    A nd          | Web:      http://www.OpenFOAM.com               |
|    \\/     M anipulation |                                                 |
\*---------------------------------------------------------------------------*/

FoamFile
{
    version     2.0;
    format      ascii;
    class       dictionary;
    object      Y_CH3O_table;
}

Y_CH3O_table
2
(
101
(
1
(
101
(
 1.92514240e-16
 1.92514240e-16
 1.92514240e-16
 1.92514240e-16
 1.92514240e-16
 1.92514240e-16
 1.92514240e-16
 1.92514240e-16
 1.92514240e-16
 1.92514240e-16
 1.92514240e-16
 1.92514240e-16
 1.92514240e-16
 1.92514240e-16
 1.92514240e-16
 1.92514240e-16
 1.92514240e-16
 1.92514240e-16
 1.92514240e-16
 1.92514240e-16
 1.92514240e-16
 1.92514240e-16
 1.92514240e-16
 1.92514240e-16
 1.92514240e-16
 1.92514240e-16
 1.92514240e-16
 1.92514240e-16
 1.92514240e-16
 1.92514240e-16
 1.92514240e-16
 1.92514240e-16
 1.92514240e-16
 1.92514240e-16
 1.92514240e-16
 1.92514240e-16
 1.92514240e-16
 1.92514240e-16
 1.92514240e-16
 1.92514240e-16
 1.92514240e-16
 1.92514240e-16
 1.92514240e-16
 1.92514240e-16
 1.92514240e-16
 2.67404061e-09
 2.67404061e-09
 4.07766803e-08
 4.07766803e-08
 4.07766803e-08
 4.07766803e-08
 4.07766803e-08
 4.07766803e-08
 4.07766803e-08
 4.07766803e-08
 4.07766803e-08
 4.07766803e-08
 4.07766803e-08
 4.07766803e-08
 4.07766803e-08
 4.07766803e-08
 4.07766803e-08
 4.07766803e-08
 4.07009481e-08
 4.07009481e-08
 4.07009481e-08
 4.07009481e-08
 4.07009481e-08
 4.07009481e-08
 4.07009481e-08
 4.07009481e-08
 4.07009481e-08
 4.07009481e-08
 4.07009481e-08
 4.07009481e-08
 1.99945575e-09
 1.99945575e-09
 1.99945575e-09
 1.99945575e-09
 1.99945575e-09
 1.99945575e-09
 1.99945575e-09
 3.07917464e-09
 3.07917464e-09
 3.07917464e-09
 3.07917464e-09
 3.07917464e-09
 3.07917464e-09
 2.32492629e-09
 2.32492629e-09
 2.32492629e-09
 2.32492629e-09
 2.32492629e-09
 2.32492629e-09
 2.32492629e-09
 4.66262397e-10
 4.66262397e-10
 4.66262397e-10
 4.66262397e-10
 4.66262397e-10
 3.83381208e-12
)
)
1
(
101
(
 4.95920748e-14
 4.95920748e-14
 4.95920748e-14
 4.95920748e-14
 4.95920748e-14
 4.95920748e-14
 4.95920748e-14
 4.95920748e-14
 4.95920748e-14
 4.95920748e-14
 4.95920748e-14
 4.95920748e-14
 4.95920748e-14
 4.95920748e-14
 4.95920748e-14
 4.95920748e-14
 4.95920748e-14
 4.95920748e-14
 4.95920748e-14
 4.95920748e-14
 4.95920748e-14
 4.95920748e-14
 4.95920748e-14
 4.95920748e-14
 4.95920748e-14
 4.95920748e-14
 4.95920748e-14
 4.95920748e-14
 4.95920748e-14
 4.95920748e-14
 4.95920748e-14
 4.95920748e-14
 4.95920748e-14
 4.95920748e-14
 4.95920748e-14
 4.95920748e-14
 4.95920748e-14
 4.95920748e-14
 4.95920748e-14
 4.95920748e-14
 4.95920748e-14
 4.95920748e-14
 4.95920748e-14
 4.95920748e-14
 4.95920748e-14
 2.67404061e-09
 2.67404061e-09
 2.67404061e-09
 4.07766803e-08
 4.07766803e-08
 4.07766803e-08
 4.07766803e-08
 4.07766803e-08
 4.07766803e-08
 4.07766803e-08
 4.07766803e-08
 4.07766803e-08
 4.07766803e-08
 4.07766803e-08
 4.07766803e-08
 4.07766803e-08
 4.07766803e-08
 4.07766803e-08
 4.07766803e-08
 4.07766803e-08
 4.07009481e-08
 4.07009481e-08
 4.07009481e-08
 4.07009481e-08
 4.07009481e-08
 4.07009481e-08
 4.07009481e-08
 4.07009481e-08
 4.07009481e-08
 4.07009481e-08
 4.07009481e-08
 4.07009481e-08
 1.99945575e-09
 1.99945575e-09
 1.99945575e-09
 1.99945575e-09
 1.99945575e-09
 1.99945575e-09
 3.07917464e-09
 3.07917464e-09
 3.07917464e-09
 3.07917464e-09
 3.07917464e-09
 3.07917464e-09
 3.07917464e-09
 2.32492629e-09
 2.32492629e-09
 2.32492629e-09
 2.32492629e-09
 2.32492629e-09
 2.32492629e-09
 1.23699122e-09
 4.66262397e-10
 4.66262397e-10
 4.66262397e-10
 9.42962123e-11
)
)
1
(
101
(
 2.75285037e-13
 2.75285037e-13
 2.75285037e-13
 2.75285037e-13
 2.75285037e-13
 2.75285037e-13
 2.75285037e-13
 2.75285037e-13
 2.75285037e-13
 2.75285037e-13
 2.75285037e-13
 2.75285037e-13
 2.75285037e-13
 2.75285037e-13
 2.75285037e-13
 2.75285037e-13
 2.75285037e-13
 2.75285037e-13
 2.75285037e-13
 2.75285037e-13
 2.75285037e-13
 2.75285037e-13
 2.75285037e-13
 2.75285037e-13
 2.75285037e-13
 2.75285037e-13
 2.75285037e-13
 2.75285037e-13
 2.75285037e-13
 2.75285037e-13
 2.75285037e-13
 2.75285037e-13
 2.75285037e-13
 2.75285037e-13
 2.75285037e-13
 2.75285037e-13
 2.75285037e-13
 2.75285037e-13
 2.75285037e-13
 2.75285037e-13
 2.75285037e-13
 2.75285037e-13
 2.75285037e-13
 2.75285037e-13
 2.67404061e-09
 2.67404061e-09
 2.67404061e-09
 2.67404061e-09
 2.67404061e-09
 2.67404061e-09
 4.07766803e-08
 4.07766803e-08
 4.07766803e-08
 4.07766803e-08
 4.07766803e-08
 4.07766803e-08
 4.07766803e-08
 4.07766803e-08
 4.07766803e-08
 4.07766803e-08
 4.07766803e-08
 4.07766803e-08
 4.07766803e-08
 4.07766803e-08
 4.07766803e-08
 4.07766803e-08
 4.07009481e-08
 4.07009481e-08
 4.07009481e-08
 4.07009481e-08
 4.07009481e-08
 4.07009481e-08
 4.07009481e-08
 4.07009481e-08
 4.07009481e-08
 4.07009481e-08
 4.07009481e-08
 4.07009481e-08
 1.99945575e-09
 1.99945575e-09
 1.99945575e-09
 1.99945575e-09
 1.99945575e-09
 1.99945575e-09
 1.99945575e-09
 3.07917464e-09
 3.07917464e-09
 3.07917464e-09
 3.07917464e-09
 3.07917464e-09
 3.07917464e-09
 2.32492629e-09
 2.32492629e-09
 2.32492629e-09
 2.32492629e-09
 2.32492629e-09
 2.32492629e-09
 1.23699122e-09
 1.23699122e-09
 3.83899367e-10
 3.83899367e-10
)
)
1
(
101
(
 4.97093104e-13
 4.97093104e-13
 4.97093104e-13
 4.97093104e-13
 4.97093104e-13
 4.97093104e-13
 4.97093104e-13
 4.97093104e-13
 4.97093104e-13
 4.97093104e-13
 4.97093104e-13
 4.97093104e-13
 4.97093104e-13
 4.97093104e-13
 4.97093104e-13
 4.97093104e-13
 4.97093104e-13
 4.97093104e-13
 4.97093104e-13
 4.97093104e-13
 4.97093104e-13
 4.97093104e-13
 4.97093104e-13
 4.97093104e-13
 4.97093104e-13
 4.97093104e-13
 4.97093104e-13
 4.97093104e-13
 4.97093104e-13
 4.97093104e-13
 4.97093104e-13
 4.97093104e-13
 4.97093104e-13
 4.97093104e-13
 4.97093104e-13
 4.97093104e-13
 4.97093104e-13
 4.97093104e-13
 4.97093104e-13
 4.97093104e-13
 4.97093104e-13
 4.97093104e-13
 4.97093104e-13
 4.97093104e-13
 1.33251157e-09
 2.67404061e-09
 2.67404061e-09
 2.67404061e-09
 2.67404061e-09
 2.67404061e-09
 2.67404061e-09
 4.07766803e-08
 4.07766803e-08
 4.07766803e-08
 4.07766803e-08
 4.07766803e-08
 4.07766803e-08
 4.07766803e-08
 4.07766803e-08
 4.07766803e-08
 4.07766803e-08
 4.07766803e-08
 4.07766803e-08
 4.07766803e-08
 4.07766803e-08
 4.07766803e-08
 4.07766803e-08
 4.07009481e-08
 4.07009481e-08
 4.07009481e-08
 4.07009481e-08
 4.07009481e-08
 4.07009481e-08
 4.07009481e-08
 4.07009481e-08
 4.07009481e-08
 4.07009481e-08
 4.07009481e-08
 4.07009481e-08
 3.91537223e-09
 1.99945575e-09
 1.99945575e-09
 1.99945575e-09
 1.99945575e-09
 1.99945575e-09
 1.99945575e-09
 3.07917464e-09
 3.07917464e-09
 3.07917464e-09
 3.07917464e-09
 3.07917464e-09
 3.07917464e-09
 3.07917464e-09
 2.32492629e-09
 2.32492629e-09
 2.32492629e-09
 2.32492629e-09
 2.32492629e-09
 1.23699122e-09
 2.80120975e-12
 2.80120975e-12
)
)
1
(
101
(
 1.04389091e-12
 1.04389091e-12
 1.04389091e-12
 1.04389091e-12
 1.04389091e-12
 1.04389091e-12
 1.04389091e-12
 1.04389091e-12
 1.04389091e-12
 1.04389091e-12
 1.04389091e-12
 1.04389091e-12
 1.04389091e-12
 1.04389091e-12
 1.04389091e-12
 1.04389091e-12
 1.04389091e-12
 1.04389091e-12
 1.04389091e-12
 1.04389091e-12
 1.04389091e-12
 1.04389091e-12
 1.04389091e-12
 1.04389091e-12
 1.04389091e-12
 1.04389091e-12
 1.04389091e-12
 1.04389091e-12
 1.04389091e-12
 1.04389091e-12
 1.04389091e-12
 1.04389091e-12
 1.04389091e-12
 1.04389091e-12
 1.04389091e-12
 1.04389091e-12
 1.04389091e-12
 1.04389091e-12
 1.04389091e-12
 1.04389091e-12
 1.04389091e-12
 1.04389091e-12
 1.04389091e-12
 1.04389091e-12
 1.33251157e-09
 1.33251157e-09
 1.33251157e-09
 2.67404061e-09
 2.67404061e-09
 2.67404061e-09
 2.67404061e-09
 2.67404061e-09
 2.67404061e-09
 4.07766803e-08
 4.07766803e-08
 4.07766803e-08
 4.07766803e-08
 4.07766803e-08
 4.07766803e-08
 4.07766803e-08
 4.07766803e-08
 4.07766803e-08
 4.07766803e-08
 4.07766803e-08
 4.07766803e-08
 4.07766803e-08
 4.07766803e-08
 4.07766803e-08
 4.07009481e-08
 4.07009481e-08
 4.07009481e-08
 4.07009481e-08
 4.07009481e-08
 4.07009481e-08
 4.07009481e-08
 4.07009481e-08
 4.07009481e-08
 4.07009481e-08
 4.07009481e-08
 4.07009481e-08
 3.91537223e-09
 1.99945575e-09
 1.99945575e-09
 1.99945575e-09
 1.99945575e-09
 1.99945575e-09
 1.99945575e-09
 1.99945575e-09
 3.07917464e-09
 3.07917464e-09
 3.07917464e-09
 3.07917464e-09
 3.07917464e-09
 3.07917464e-09
 2.57265957e-09
 2.32492629e-09
 2.32492629e-09
 2.32492629e-09
 3.95583279e-10
 3.95583279e-10
 2.80120975e-12
)
)
1
(
101
(
 1.31120351e-12
 1.31120351e-12
 1.31120351e-12
 1.31120351e-12
 1.31120351e-12
 1.31120351e-12
 1.31120351e-12
 1.31120351e-12
 1.31120351e-12
 1.31120351e-12
 1.31120351e-12
 1.31120351e-12
 1.31120351e-12
 1.31120351e-12
 1.31120351e-12
 1.31120351e-12
 1.31120351e-12
 1.31120351e-12
 1.31120351e-12
 1.31120351e-12
 1.31120351e-12
 1.31120351e-12
 1.31120351e-12
 1.31120351e-12
 1.31120351e-12
 1.31120351e-12
 1.31120351e-12
 1.31120351e-12
 1.31120351e-12
 1.31120351e-12
 1.31120351e-12
 1.31120351e-12
 1.31120351e-12
 1.31120351e-12
 1.31120351e-12
 1.31120351e-12
 1.31120351e-12
 1.31120351e-12
 1.31120351e-12
 1.31120351e-12
 1.31120351e-12
 1.31120351e-12
 1.24832477e-11
 1.33251157e-09
 1.33251157e-09
 1.33251157e-09
 1.33251157e-09
 1.33251157e-09
 2.67404061e-09
 2.67404061e-09
 2.67404061e-09
 2.67404061e-09
 2.67404061e-09
 2.67404061e-09
 4.07766803e-08
 4.07766803e-08
 4.07766803e-08
 4.07766803e-08
 4.07766803e-08
 4.07766803e-08
 4.07766803e-08
 4.07766803e-08
 4.07766803e-08
 4.07766803e-08
 4.07766803e-08
 4.07766803e-08
 4.07766803e-08
 4.07766803e-08
 4.07766803e-08
 4.07766803e-08
 4.07009481e-08
 4.07009481e-08
 4.07009481e-08
 4.07009481e-08
 4.07009481e-08
 4.07009481e-08
 4.07009481e-08
 4.07009481e-08
 4.07009481e-08
 4.07009481e-08
 4.07009481e-08
 3.91537223e-09
 3.91537223e-09
 1.99945575e-09
 1.99945575e-09
 1.99945575e-09
 1.99945575e-09
 1.99945575e-09
 1.99945575e-09
 3.07917464e-09
 3.07917464e-09
 3.07917464e-09
 3.07917464e-09
 3.07917464e-09
 3.07917464e-09
 2.57265957e-09
 2.57265957e-09
 9.69862335e-10
 9.69862335e-10
 3.95583279e-10
 3.95583279e-10
)
)
1
(
101
(
 2.89172249e-12
 2.89172249e-12
 2.89172249e-12
 2.89172249e-12
 2.89172249e-12
 2.89172249e-12
 2.89172249e-12
 2.89172249e-12
 2.89172249e-12
 2.89172249e-12
 2.89172249e-12
 2.89172249e-12
 2.89172249e-12
 2.89172249e-12
 2.89172249e-12
 2.89172249e-12
 2.89172249e-12
 2.89172249e-12
 2.89172249e-12
 2.89172249e-12
 2.89172249e-12
 2.89172249e-12
 2.89172249e-12
 2.89172249e-12
 2.89172249e-12
 2.89172249e-12
 2.89172249e-12
 2.89172249e-12
 2.89172249e-12
 2.89172249e-12
 2.89172249e-12
 2.89172249e-12
 2.89172249e-12
 1.24832477e-11
 1.24832477e-11
 1.24832477e-11
 1.24832477e-11
 1.24832477e-11
 1.24832477e-11
 1.24832477e-11
 1.24832477e-11
 1.24832477e-11
 1.24832477e-11
 1.33251157e-09
 1.33251157e-09
 1.33251157e-09
 1.33251157e-09
 1.33251157e-09
 1.33251157e-09
 2.67404061e-09
 2.67404061e-09
 2.67404061e-09
 2.67404061e-09
 2.67404061e-09
 2.67404061e-09
 2.67404061e-09
 4.07766803e-08
 4.07766803e-08
 4.07766803e-08
 4.07766803e-08
 4.07766803e-08
 4.07766803e-08
 4.07766803e-08
 4.07766803e-08
 4.07766803e-08
 4.07766803e-08
 4.07766803e-08
 4.07766803e-08
 4.07766803e-08
 4.07766803e-08
 4.07766803e-08
 4.07009481e-08
 4.07009481e-08
 4.07009481e-08
 4.07009481e-08
 4.07009481e-08
 4.07009481e-08
 4.07009481e-08
 4.07009481e-08
 4.07009481e-08
 4.07009481e-08
 4.07009481e-08
 3.91537223e-09
 3.91537223e-09
 1.99945575e-09
 1.99945575e-09
 1.99945575e-09
 1.99945575e-09
 1.99945575e-09
 1.99945575e-09
 1.99945575e-09
 3.07917464e-09
 3.07917464e-09
 3.07917464e-09
 3.07917464e-09
 3.07917464e-09
 2.57265957e-09
 2.57265957e-09
 9.69862335e-10
 9.69862335e-10
 3.95583279e-10
)
)
1
(
101
(
 3.20189338e-12
 3.20189338e-12
 3.20189338e-12
 3.20189338e-12
 3.20189338e-12
 3.20189338e-12
 3.20189338e-12
 3.20189338e-12
 3.20189338e-12
 3.20189338e-12
 3.20189338e-12
 3.20189338e-12
 3.20189338e-12
 3.20189338e-12
 3.20189338e-12
 3.20189338e-12
 3.20189338e-12
 3.20189338e-12
 3.20189338e-12
 3.20189338e-12
 3.20189338e-12
 3.20189338e-12
 3.20189338e-12
 3.20189338e-12
 3.20189338e-12
 3.20189338e-12
 1.24832477e-11
 1.24832477e-11
 1.24832477e-11
 1.24832477e-11
 1.24832477e-11
 1.24832477e-11
 1.24832477e-11
 1.24832477e-11
 1.24832477e-11
 1.24832477e-11
 1.24832477e-11
 1.24832477e-11
 1.24832477e-11
 1.24832477e-11
 1.24832477e-11
 1.24832477e-11
 1.24832477e-11
 1.33251157e-09
 1.33251157e-09
 1.33251157e-09
 1.33251157e-09
 1.33251157e-09
 1.33251157e-09
 1.33251157e-09
 2.67404061e-09
 2.67404061e-09
 2.67404061e-09
 2.67404061e-09
 2.67404061e-09
 2.67404061e-09
 2.67404061e-09
 4.07766803e-08
 4.07766803e-08
 4.07766803e-08
 4.07766803e-08
 4.07766803e-08
 4.07766803e-08
 4.07766803e-08
 4.07766803e-08
 4.07766803e-08
 4.07766803e-08
 4.07766803e-08
 4.07766803e-08
 4.07766803e-08
 4.07766803e-08
 4.07766803e-08
 4.07009481e-08
 4.07009481e-08
 4.07009481e-08
 4.07009481e-08
 4.07009481e-08
 4.07009481e-08
 4.07009481e-08
 4.07009481e-08
 4.07009481e-08
 4.07009481e-08
 4.07009481e-08
 3.91537223e-09
 3.91537223e-09
 3.91537223e-09
 1.99945575e-09
 1.99945575e-09
 1.99945575e-09
 1.99945575e-09
 1.99945575e-09
 1.99945575e-09
 3.94723299e-09
 3.07917464e-09
 3.07917464e-09
 3.07917464e-09
 8.07866239e-10
 8.07866239e-10
 8.07866239e-10
 9.69862335e-10
 9.69862335e-10
)
)
1
(
101
(
 3.95570890e-12
 3.95570890e-12
 3.95570890e-12
 3.95570890e-12
 3.95570890e-12
 3.95570890e-12
 3.95570890e-12
 3.95570890e-12
 3.95570890e-12
 3.95570890e-12
 3.95570890e-12
 3.95570890e-12
 3.95570890e-12
 3.95570890e-12
 3.95570890e-12
 3.95570890e-12
 3.95570890e-12
 3.95570890e-12
 3.95570890e-12
 1.24832477e-11
 1.24832477e-11
 1.24832477e-11
 1.24832477e-11
 1.24832477e-11
 1.24832477e-11
 1.24832477e-11
 1.24832477e-11
 1.24832477e-11
 1.24832477e-11
 1.24832477e-11
 1.24832477e-11
 1.24832477e-11
 1.24832477e-11
 1.24832477e-11
 1.24832477e-11
 1.24832477e-11
 1.24832477e-11
 1.24832477e-11
 1.24832477e-11
 1.24832477e-11
 1.24832477e-11
 1.24832477e-11
 1.33251157e-09
 1.33251157e-09
 1.33251157e-09
 1.33251157e-09
 1.33251157e-09
 1.33251157e-09
 1.33251157e-09
 1.33251157e-09
 1.33251157e-09
 2.67404061e-09
 2.67404061e-09
 2.67404061e-09
 2.67404061e-09
 2.67404061e-09
 2.67404061e-09
 2.67404061e-09
 2.67404061e-09
 4.07766803e-08
 4.07766803e-08
 4.07766803e-08
 4.07766803e-08
 4.07766803e-08
 4.07766803e-08
 4.07766803e-08
 4.07766803e-08
 4.07766803e-08
 4.07766803e-08
 4.07766803e-08
 4.07766803e-08
 4.07766803e-08
 4.07766803e-08
 4.07009481e-08
 4.07009481e-08
 4.07009481e-08
 4.07009481e-08
 4.07009481e-08
 4.07009481e-08
 4.07009481e-08
 4.07009481e-08
 4.07009481e-08
 4.07009481e-08
 4.07009481e-08
 3.91537223e-09
 3.91537223e-09
 3.91537223e-09
 1.99945575e-09
 1.99945575e-09
 1.99945575e-09
 1.99945575e-09
 1.99945575e-09
 1.99945575e-09
 3.94723299e-09
 3.94723299e-09
 8.58776578e-10
 8.58776578e-10
 8.07866239e-10
 8.07866239e-10
 8.07866239e-10
 8.07866239e-10
)
)
1
(
101
(
 8.85147370e-12
 8.85147370e-12
 8.85147370e-12
 8.85147370e-12
 8.85147370e-12
 8.85147370e-12
 8.85147370e-12
 8.85147370e-12
 8.85147370e-12
 8.85147370e-12
 8.85147370e-12
 8.85147370e-12
 8.85147370e-12
 8.85147370e-12
 1.24832477e-11
 1.24832477e-11
 1.24832477e-11
 1.24832477e-11
 1.24832477e-11
 1.24832477e-11
 1.24832477e-11
 1.24832477e-11
 1.24832477e-11
 1.24832477e-11
 1.24832477e-11
 1.24832477e-11
 1.24832477e-11
 1.24832477e-11
 1.24832477e-11
 1.24832477e-11
 1.24832477e-11
 1.24832477e-11
 1.24832477e-11
 1.24832477e-11
 1.24832477e-11
 1.24832477e-11
 1.24832477e-11
 1.24832477e-11
 1.24832477e-11
 1.24832477e-11
 1.24832477e-11
 1.24832477e-11
 1.33251157e-09
 1.33251157e-09
 1.33251157e-09
 1.33251157e-09
 1.33251157e-09
 1.33251157e-09
 1.33251157e-09
 1.33251157e-09
 1.33251157e-09
 1.33251157e-09
 2.67404061e-09
 2.67404061e-09
 2.67404061e-09
 2.67404061e-09
 2.67404061e-09
 2.67404061e-09
 2.67404061e-09
 2.67404061e-09
 4.07766803e-08
 4.07766803e-08
 4.07766803e-08
 4.07766803e-08
 4.07766803e-08
 4.07766803e-08
 4.07766803e-08
 4.07766803e-08
 4.07766803e-08
 4.07766803e-08
 4.07766803e-08
 4.07766803e-08
 4.07766803e-08
 4.07766803e-08
 4.07766803e-08
 4.07009481e-08
 4.07009481e-08
 4.07009481e-08
 4.07009481e-08
 4.07009481e-08
 4.07009481e-08
 4.07009481e-08
 4.07009481e-08
 4.07009481e-08
 4.07009481e-08
 3.91537223e-09
 3.91537223e-09
 3.91537223e-09
 3.91537223e-09
 1.99945575e-09
 1.99945575e-09
 1.99945575e-09
 1.99945575e-09
 1.99945575e-09
 3.94723299e-09
 3.94723299e-09
 8.58776578e-10
 8.58776578e-10
 8.07866239e-10
 8.07866239e-10
 8.07866239e-10
)
)
1
(
101
(
 7.65015005e-12
 7.65015005e-12
 7.65015005e-12
 7.65015005e-12
 7.65015005e-12
 7.65015005e-12
 7.65015005e-12
 7.65015005e-12
 7.65015005e-12
 1.24832477e-11
 1.24832477e-11
 1.24832477e-11
 1.24832477e-11
 1.24832477e-11
 1.24832477e-11
 1.24832477e-11
 1.24832477e-11
 1.24832477e-11
 1.24832477e-11
 1.24832477e-11
 1.24832477e-11
 1.24832477e-11
 1.24832477e-11
 1.24832477e-11
 1.24832477e-11
 1.24832477e-11
 1.24832477e-11
 1.24832477e-11
 1.24832477e-11
 1.24832477e-11
 1.24832477e-11
 1.24832477e-11
 1.24832477e-11
 1.24832477e-11
 1.24832477e-11
 1.24832477e-11
 1.24832477e-11
 1.24832477e-11
 1.24832477e-11
 1.24832477e-11
 1.24832477e-11
 1.24832477e-11
 1.33251157e-09
 1.33251157e-09
 1.33251157e-09
 1.33251157e-09
 1.33251157e-09
 1.33251157e-09
 1.33251157e-09
 1.33251157e-09
 1.33251157e-09
 1.33251157e-09
 1.33251157e-09
 1.33251157e-09
 2.67404061e-09
 2.67404061e-09
 2.67404061e-09
 2.67404061e-09
 2.67404061e-09
 2.67404061e-09
 2.67404061e-09
 2.67404061e-09
 4.07766803e-08
 4.07766803e-08
 4.07766803e-08
 4.07766803e-08
 4.07766803e-08
 4.07766803e-08
 4.07766803e-08
 4.07766803e-08
 4.07766803e-08
 4.07766803e-08
 4.07766803e-08
 4.07766803e-08
 4.07766803e-08
 4.07766803e-08
 4.07009481e-08
 4.07009481e-08
 4.07009481e-08
 4.07009481e-08
 4.07009481e-08
 4.07009481e-08
 4.07009481e-08
 4.07009481e-08
 4.07009481e-08
 4.07009481e-08
 3.91537223e-09
 3.91537223e-09
 3.91537223e-09
 3.91537223e-09
 1.87614981e-09
 1.99945575e-09
 1.99945575e-09
 1.99945575e-09
 1.99945575e-09
 3.94723299e-09
 3.94723299e-09
 8.58776578e-10
 8.58776578e-10
 8.07866239e-10
 8.07866239e-10
)
)
1
(
101
(
 9.46563846e-12
 9.46563846e-12
 9.46563846e-12
 9.46563846e-12
 9.46563846e-12
 9.46563846e-12
 1.24832477e-11
 1.24832477e-11
 1.24832477e-11
 1.24832477e-11
 1.24832477e-11
 1.24832477e-11
 1.24832477e-11
 1.24832477e-11
 1.24832477e-11
 1.24832477e-11
 1.24832477e-11
 1.24832477e-11
 1.24832477e-11
 1.24832477e-11
 1.24832477e-11
 1.24832477e-11
 1.24832477e-11
 1.24832477e-11
 1.24832477e-11
 1.24832477e-11
 1.24832477e-11
 1.24832477e-11
 1.24832477e-11
 1.24832477e-11
 1.24832477e-11
 1.24832477e-11
 1.24832477e-11
 1.24832477e-11
 1.24832477e-11
 1.24832477e-11
 1.24832477e-11
 1.24832477e-11
 1.24832477e-11
 1.24832477e-11
 1.24832477e-11
 1.24832477e-11
 1.33251157e-09
 1.33251157e-09
 1.33251157e-09
 1.33251157e-09
 1.33251157e-09
 1.33251157e-09
 1.33251157e-09
 1.33251157e-09
 1.33251157e-09
 1.33251157e-09
 1.33251157e-09
 1.33251157e-09
 1.33251157e-09
 2.67404061e-09
 2.67404061e-09
 2.67404061e-09
 2.67404061e-09
 2.67404061e-09
 2.67404061e-09
 2.67404061e-09
 2.67404061e-09
 4.07766803e-08
 4.07766803e-08
 4.07766803e-08
 4.07766803e-08
 4.07766803e-08
 4.07766803e-08
 4.07766803e-08
 4.07766803e-08
 4.07766803e-08
 4.07766803e-08
 4.07766803e-08
 4.07766803e-08
 4.07766803e-08
 4.07766803e-08
 4.07009481e-08
 4.07009481e-08
 4.07009481e-08
 4.07009481e-08
 4.07009481e-08
 4.07009481e-08
 4.07009481e-08
 4.07009481e-08
 4.07009481e-08
 4.07009481e-08
 3.91537223e-09
 3.91537223e-09
 3.91537223e-09
 3.91537223e-09
 1.87614981e-09
 1.87614981e-09
 1.32901103e-09
 1.32901103e-09
 1.32901103e-09
 3.94723299e-09
 3.94723299e-09
 8.58776578e-10
 8.58776578e-10
 8.07866239e-10
)
)
1
(
101
(
 1.25160807e-11
 1.25160807e-11
 1.25160807e-11
 1.24832477e-11
 1.24832477e-11
 1.24832477e-11
 1.24832477e-11
 1.24832477e-11
 1.24832477e-11
 1.24832477e-11
 1.24832477e-11
 1.24832477e-11
 1.24832477e-11
 1.24832477e-11
 1.24832477e-11
 1.24832477e-11
 1.24832477e-11
 1.24832477e-11
 1.24832477e-11
 1.24832477e-11
 1.24832477e-11
 1.24832477e-11
 1.24832477e-11
 1.24832477e-11
 1.24832477e-11
 1.24832477e-11
 1.24832477e-11
 1.24832477e-11
 1.24832477e-11
 1.24832477e-11
 1.24832477e-11
 1.24832477e-11
 1.24832477e-11
 1.24832477e-11
 1.24832477e-11
 1.24832477e-11
 1.24832477e-11
 1.24832477e-11
 1.24832477e-11
 1.24832477e-11
 1.24832477e-11
 6.63131717e-11
 1.33251157e-09
 1.33251157e-09
 1.33251157e-09
 1.33251157e-09
 1.33251157e-09
 1.33251157e-09
 1.33251157e-09
 1.33251157e-09
 1.33251157e-09
 1.33251157e-09
 1.33251157e-09
 1.33251157e-09
 1.33251157e-09
 1.33251157e-09
 2.67404061e-09
 2.67404061e-09
 2.67404061e-09
 2.67404061e-09
 2.67404061e-09
 2.67404061e-09
 2.67404061e-09
 2.67404061e-09
 2.67404061e-09
 4.07766803e-08
 4.07766803e-08
 4.07766803e-08
 4.07766803e-08
 4.07766803e-08
 4.07766803e-08
 4.07766803e-08
 4.07766803e-08
 4.07766803e-08
 4.07766803e-08
 4.07766803e-08
 4.07766803e-08
 4.07766803e-08
 4.07009481e-08
 4.07009481e-08
 4.07009481e-08
 4.07009481e-08
 4.07009481e-08
 4.07009481e-08
 4.07009481e-08
 4.07009481e-08
 4.07009481e-08
 4.07009481e-08
 3.91537223e-09
 3.91537223e-09
 3.91537223e-09
 3.91537223e-09
 1.87614981e-09
 1.87614981e-09
 1.32901103e-09
 1.32901103e-09
 1.32901103e-09
 1.32901103e-09
 3.94723299e-09
 8.58776578e-10
 8.58776578e-10
)
)
1
(
101
(
 3.72913296e-12
 3.72913296e-12
 1.24832477e-11
 1.24832477e-11
 1.24832477e-11
 1.24832477e-11
 1.24832477e-11
 1.24832477e-11
 1.24832477e-11
 1.24832477e-11
 1.24832477e-11
 1.24832477e-11
 1.24832477e-11
 1.24832477e-11
 1.24832477e-11
 1.24832477e-11
 1.24832477e-11
 1.24832477e-11
 1.24832477e-11
 1.24832477e-11
 1.24832477e-11
 1.24832477e-11
 1.24832477e-11
 1.24832477e-11
 1.24832477e-11
 1.24832477e-11
 1.24832477e-11
 1.24832477e-11
 1.24832477e-11
 1.24832477e-11
 1.24832477e-11
 1.24832477e-11
 1.24832477e-11
 1.24832477e-11
 1.24832477e-11
 1.24832477e-11
 1.24832477e-11
 1.24832477e-11
 1.24832477e-11
 1.24832477e-11
 1.24832477e-11
 6.63131717e-11
 6.63131717e-11
 1.33251157e-09
 1.33251157e-09
 1.33251157e-09
 1.33251157e-09
 1.33251157e-09
 1.33251157e-09
 1.33251157e-09
 1.33251157e-09
 1.33251157e-09
 1.33251157e-09
 1.33251157e-09
 1.33251157e-09
 1.33251157e-09
 1.33251157e-09
 2.67404061e-09
 2.67404061e-09
 2.67404061e-09
 2.67404061e-09
 2.67404061e-09
 2.67404061e-09
 2.67404061e-09
 2.67404061e-09
 2.67404061e-09
 4.07766803e-08
 4.07766803e-08
 4.07766803e-08
 4.07766803e-08
 4.07766803e-08
 4.07766803e-08
 4.07766803e-08
 4.07766803e-08
 4.07766803e-08
 4.07766803e-08
 4.07766803e-08
 4.07766803e-08
 4.07766803e-08
 4.07766803e-08
 4.07009481e-08
 4.07009481e-08
 4.07009481e-08
 4.07009481e-08
 4.07009481e-08
 4.07009481e-08
 4.07009481e-08
 4.07009481e-08
 2.09450327e-09
 3.91537223e-09
 3.91537223e-09
 3.91537223e-09
 3.67090853e-13
 3.67090853e-13
 3.67090853e-13
 1.32901103e-09
 1.32901103e-09
 1.32901103e-09
 1.32901103e-09
 1.32901103e-09
 8.58776578e-10
)
)
1
(
101
(
 3.52439976e-20
 1.24832477e-11
 1.24832477e-11
 1.24832477e-11
 1.24832477e-11
 1.24832477e-11
 1.24832477e-11
 1.24832477e-11
 1.24832477e-11
 1.24832477e-11
 1.24832477e-11
 1.24832477e-11
 1.24832477e-11
 1.24832477e-11
 1.24832477e-11
 1.24832477e-11
 1.24832477e-11
 1.24832477e-11
 1.24832477e-11
 1.24832477e-11
 1.24832477e-11
 1.24832477e-11
 1.24832477e-11
 1.24832477e-11
 1.24832477e-11
 1.24832477e-11
 1.24832477e-11
 1.24832477e-11
 1.24832477e-11
 1.24832477e-11
 1.24832477e-11
 1.24832477e-11
 1.24832477e-11
 1.24832477e-11
 1.24832477e-11
 1.24832477e-11
 1.24832477e-11
 1.24832477e-11
 1.24832477e-11
 1.24832477e-11
 6.63131717e-11
 6.63131717e-11
 6.63131717e-11
 6.63131717e-11
 1.33251157e-09
 1.33251157e-09
 1.33251157e-09
 1.33251157e-09
 1.33251157e-09
 1.33251157e-09
 1.33251157e-09
 1.33251157e-09
 1.33251157e-09
 1.33251157e-09
 1.33251157e-09
 1.33251157e-09
 1.33251157e-09
 1.33251157e-09
 2.67404061e-09
 2.67404061e-09
 2.67404061e-09
 2.67404061e-09
 2.67404061e-09
 2.67404061e-09
 2.67404061e-09
 2.67404061e-09
 2.67404061e-09
 2.67404061e-09
 4.07766803e-08
 4.07766803e-08
 4.07766803e-08
 4.07766803e-08
 4.07766803e-08
 4.07766803e-08
 4.07766803e-08
 4.07766803e-08
 4.07766803e-08
 4.07766803e-08
 4.07766803e-08
 4.07766803e-08
 4.07766803e-08
 4.26095923e-09
 4.07009481e-08
 4.07009481e-08
 4.07009481e-08
 4.07009481e-08
 4.07009481e-08
 4.07009481e-08
 4.07009481e-08
 2.09450327e-09
 2.09450327e-09
 2.37946045e-10
 2.37946045e-10
 3.67090853e-13
 3.67090853e-13
 3.67090853e-13
 3.67090853e-13
 1.32901103e-09
 1.32901103e-09
 1.32901103e-09
 1.32901103e-09
)
)
1
(
101
(
 3.52439976e-20
 1.59484997e-11
 1.59484997e-11
 1.59484997e-11
 1.59484997e-11
 1.59484997e-11
 1.59484997e-11
 1.59484997e-11
 1.59484997e-11
 1.59484997e-11
 1.59484997e-11
 1.59484997e-11
 1.59484997e-11
 1.59484997e-11
 1.59484997e-11
 1.59484997e-11
 1.59484997e-11
 1.59484997e-11
 1.59484997e-11
 1.59484997e-11
 1.59484997e-11
 1.59484997e-11
 1.59484997e-11
 1.59484997e-11
 1.59484997e-11
 1.59484997e-11
 1.59484997e-11
 1.59484997e-11
 1.59484997e-11
 1.59484997e-11
 1.59484997e-11
 1.59484997e-11
 1.59484997e-11
 1.59484997e-11
 1.59484997e-11
 1.59484997e-11
 1.59484997e-11
 1.59484997e-11
 1.59484997e-11
 1.59484997e-11
 6.63131717e-11
 6.63131717e-11
 6.63131717e-11
 6.63131717e-11
 6.63131717e-11
 1.33251157e-09
 1.33251157e-09
 1.33251157e-09
 1.33251157e-09
 1.33251157e-09
 1.33251157e-09
 1.33251157e-09
 1.33251157e-09
 1.33251157e-09
 1.33251157e-09
 1.33251157e-09
 1.33251157e-09
 1.33251157e-09
 1.33251157e-09
 2.67404061e-09
 2.67404061e-09
 2.67404061e-09
 2.67404061e-09
 2.67404061e-09
 2.67404061e-09
 2.67404061e-09
 2.67404061e-09
 2.67404061e-09
 2.67404061e-09
 4.07766803e-08
 4.07766803e-08
 4.07766803e-08
 4.07766803e-08
 4.07766803e-08
 4.07766803e-08
 4.07766803e-08
 4.07766803e-08
 4.07766803e-08
 4.07766803e-08
 4.07766803e-08
 4.07766803e-08
 4.07766803e-08
 4.26095923e-09
 4.26095923e-09
 4.07009481e-08
 4.07009481e-08
 4.07009481e-08
 4.07009481e-08
 4.07009481e-08
 2.09450327e-09
 2.09450327e-09
 2.09450327e-09
 2.37946045e-10
 2.37946045e-10
 3.67090853e-13
 3.67090853e-13
 3.67090853e-13
 3.67090853e-13
 3.67090853e-13
 1.32901103e-09
 1.32901103e-09
)
)
1
(
101
(
 2.03224216e-11
 2.03224216e-11
 2.03224216e-11
 2.03224216e-11
 2.03224216e-11
 2.03224216e-11
 2.03224216e-11
 2.03224216e-11
 2.03224216e-11
 2.03224216e-11
 2.03224216e-11
 2.03224216e-11
 2.03224216e-11
 2.03224216e-11
 2.03224216e-11
 2.03224216e-11
 2.03224216e-11
 2.03224216e-11
 2.03224216e-11
 2.03224216e-11
 2.03224216e-11
 2.03224216e-11
 2.03224216e-11
 2.03224216e-11
 2.03224216e-11
 2.03224216e-11
 2.03224216e-11
 2.03224216e-11
 2.03224216e-11
 2.03224216e-11
 2.03224216e-11
 2.03224216e-11
 2.03224216e-11
 2.03224216e-11
 2.03224216e-11
 2.03224216e-11
 2.03224216e-11
 2.03224216e-11
 2.03224216e-11
 2.03224216e-11
 6.63131717e-11
 6.63131717e-11
 6.63131717e-11
 6.63131717e-11
 6.63131717e-11
 6.63131717e-11
 1.33251157e-09
 1.33251157e-09
 1.33251157e-09
 1.33251157e-09
 1.33251157e-09
 1.33251157e-09
 1.33251157e-09
 1.33251157e-09
 1.33251157e-09
 1.33251157e-09
 1.33251157e-09
 1.33251157e-09
 1.33251157e-09
 1.33251157e-09
 1.33251157e-09
 2.67404061e-09
 2.67404061e-09
 2.67404061e-09
 2.67404061e-09
 2.67404061e-09
 2.67404061e-09
 2.67404061e-09
 2.67404061e-09
 2.67404061e-09
 2.67404061e-09
 4.07766803e-08
 4.07766803e-08
 4.07766803e-08
 4.07766803e-08
 4.07766803e-08
 4.07766803e-08
 4.07766803e-08
 4.07766803e-08
 4.07766803e-08
 4.07766803e-08
 4.07766803e-08
 4.07766803e-08
 4.26095923e-09
 4.26095923e-09
 4.26095923e-09
 4.07009481e-08
 4.07009481e-08
 4.07009481e-08
 4.07009481e-08
 2.09450327e-09
 2.09450327e-09
 2.09450327e-09
 2.37946045e-10
 2.37946045e-10
 3.67090853e-13
 3.67090853e-13
 3.67090853e-13
 3.67090853e-13
 3.67090853e-13
 3.67090853e-13
)
)
1
(
101
(
 2.34464938e-11
 2.34464938e-11
 2.34464938e-11
 2.34464938e-11
 2.34464938e-11
 2.34464938e-11
 2.34464938e-11
 2.34464938e-11
 2.34464938e-11
 2.34464938e-11
 2.34464938e-11
 2.34464938e-11
 2.34464938e-11
 2.34464938e-11
 2.34464938e-11
 2.34464938e-11
 2.34464938e-11
 2.34464938e-11
 2.34464938e-11
 2.34464938e-11
 2.34464938e-11
 2.34464938e-11
 2.34464938e-11
 2.34464938e-11
 2.34464938e-11
 2.34464938e-11
 2.34464938e-11
 2.34464938e-11
 2.34464938e-11
 2.34464938e-11
 2.34464938e-11
 2.34464938e-11
 2.34464938e-11
 2.34464938e-11
 2.34464938e-11
 2.34464938e-11
 2.34464938e-11
 2.34464938e-11
 2.34464938e-11
 6.63131717e-11
 6.63131717e-11
 6.63131717e-11
 6.63131717e-11
 6.63131717e-11
 6.63131717e-11
 6.63131717e-11
 6.63131717e-11
 6.63131717e-11
 1.33251157e-09
 1.33251157e-09
 1.33251157e-09
 1.33251157e-09
 1.33251157e-09
 1.33251157e-09
 1.33251157e-09
 1.33251157e-09
 1.33251157e-09
 1.33251157e-09
 1.33251157e-09
 1.33251157e-09
 1.33251157e-09
 1.33251157e-09
 2.67404061e-09
 2.67404061e-09
 2.67404061e-09
 2.67404061e-09
 2.67404061e-09
 2.67404061e-09
 2.67404061e-09
 2.67404061e-09
 2.67404061e-09
 2.67404061e-09
 4.07766803e-08
 4.07766803e-08
 4.07766803e-08
 4.07766803e-08
 4.07766803e-08
 4.07766803e-08
 4.07766803e-08
 4.07766803e-08
 4.07766803e-08
 4.07766803e-08
 4.07766803e-08
 4.07766803e-08
 4.26095923e-09
 4.26095923e-09
 4.26095923e-09
 4.26095923e-09
 2.99084337e-09
 2.99084337e-09
 2.99084337e-09
 2.09450327e-09
 2.09450327e-09
 2.09450327e-09
 2.37946045e-10
 2.37946045e-10
 3.67090853e-13
 3.67090853e-13
 3.67090853e-13