/*--------------------------------*- C++ -*----------------------------------*\
| =========                 |                                                 |
| \\      /  F ield        | OpenFOAM: The Open Source CFD Toolbox           |
|  \\    /   O peration    | Version:  7                                     |
|   \\  /    A nd          | Web:      http://www.OpenFOAM.com               |
|    \\/     M anipulation |                                                 |
\*---------------------------------------------------------------------------*/

FoamFile
{
    version     2.0;
    format      ascii;
    class       dictionary;
    object      Y_CH3OH_table;
}

Y_CH3OH_table
2
(
101
(
1
(
101
(
 6.57421742e-14
 6.57421742e-14
 6.57421742e-14
 6.57421742e-14
 6.57421742e-14
 6.57421742e-14
 6.57421742e-14
 6.57421742e-14
 6.57421742e-14
 6.57421742e-14
 6.57421742e-14
 6.57421742e-14
 6.57421742e-14
 6.57421742e-14
 6.57421742e-14
 6.57421742e-14
 6.57421742e-14
 6.57421742e-14
 6.57421742e-14
 6.57421742e-14
 6.57421742e-14
 6.57421742e-14
 6.57421742e-14
 6.57421742e-14
 6.57421742e-14
 6.57421742e-14
 6.57421742e-14
 6.57421742e-14
 6.57421742e-14
 6.57421742e-14
 6.57421742e-14
 6.57421742e-14
 6.57421742e-14
 6.57421742e-14
 6.57421742e-14
 6.57421742e-14
 6.57421742e-14
 6.57421742e-14
 6.57421742e-14
 6.57421742e-14
 6.57421742e-14
 6.57421742e-14
 6.57421742e-14
 6.57421742e-14
 6.57421742e-14
 2.08825588e-06
 2.08825588e-06
 4.25332751e-06
 4.25332751e-06
 4.25332751e-06
 4.25332751e-06
 4.25332751e-06
 4.25332751e-06
 4.25332751e-06
 4.25332751e-06
 4.25332751e-06
 4.25332751e-06
 4.25332751e-06
 4.25332751e-06
 4.25332751e-06
 4.25332751e-06
 4.25332751e-06
 4.25332751e-06
 3.31825300e-06
 3.31825300e-06
 3.31825300e-06
 3.31825300e-06
 3.31825300e-06
 3.31825300e-06
 3.31825300e-06
 3.31825300e-06
 3.31825300e-06
 3.31825300e-06
 3.31825300e-06
 3.31825300e-06
 6.12718424e-07
 6.12718424e-07
 6.12718424e-07
 6.12718424e-07
 6.12718424e-07
 6.12718424e-07
 6.12718424e-07
 4.97225530e-07
 4.97225530e-07
 4.97225530e-07
 4.97225530e-07
 4.97225530e-07
 4.97225530e-07
 2.81751862e-07
 2.81751862e-07
 2.81751862e-07
 2.81751862e-07
 2.81751862e-07
 2.81751862e-07
 2.81751862e-07
 4.30466911e-08
 4.30466911e-08
 4.30466911e-08
 4.30466911e-08
 4.30466911e-08
 3.49127939e-10
)
)
1
(
101
(
 6.28198354e-12
 6.28198354e-12
 6.28198354e-12
 6.28198354e-12
 6.28198354e-12
 6.28198354e-12
 6.28198354e-12
 6.28198354e-12
 6.28198354e-12
 6.28198354e-12
 6.28198354e-12
 6.28198354e-12
 6.28198354e-12
 6.28198354e-12
 6.28198354e-12
 6.28198354e-12
 6.28198354e-12
 6.28198354e-12
 6.28198354e-12
 6.28198354e-12
 6.28198354e-12
 6.28198354e-12
 6.28198354e-12
 6.28198354e-12
 6.28198354e-12
 6.28198354e-12
 6.28198354e-12
 6.28198354e-12
 6.28198354e-12
 6.28198354e-12
 6.28198354e-12
 6.28198354e-12
 6.28198354e-12
 6.28198354e-12
 6.28198354e-12
 6.28198354e-12
 6.28198354e-12
 6.28198354e-12
 6.28198354e-12
 6.28198354e-12
 6.28198354e-12
 6.28198354e-12
 6.28198354e-12
 6.28198354e-12
 6.28198354e-12
 2.08825588e-06
 2.08825588e-06
 2.08825588e-06
 4.25332751e-06
 4.25332751e-06
 4.25332751e-06
 4.25332751e-06
 4.25332751e-06
 4.25332751e-06
 4.25332751e-06
 4.25332751e-06
 4.25332751e-06
 4.25332751e-06
 4.25332751e-06
 4.25332751e-06
 4.25332751e-06
 4.25332751e-06
 4.25332751e-06
 4.25332751e-06
 4.25332751e-06
 3.31825300e-06
 3.31825300e-06
 3.31825300e-06
 3.31825300e-06
 3.31825300e-06
 3.31825300e-06
 3.31825300e-06
 3.31825300e-06
 3.31825300e-06
 3.31825300e-06
 3.31825300e-06
 3.31825300e-06
 6.12718424e-07
 6.12718424e-07
 6.12718424e-07
 6.12718424e-07
 6.12718424e-07
 6.12718424e-07
 4.97225530e-07
 4.97225530e-07
 4.97225530e-07
 4.97225530e-07
 4.97225530e-07
 4.97225530e-07
 4.97225530e-07
 2.81751862e-07
 2.81751862e-07
 2.81751862e-07
 2.81751862e-07
 2.81751862e-07
 2.81751862e-07
 1.37956631e-07
 4.30466911e-08
 4.30466911e-08
 4.30466911e-08
 1.36611636e-08
)
)
1
(
101
(
 1.86368843e-11
 1.86368843e-11
 1.86368843e-11
 1.86368843e-11
 1.86368843e-11
 1.86368843e-11
 1.86368843e-11
 1.86368843e-11
 1.86368843e-11
 1.86368843e-11
 1.86368843e-11
 1.86368843e-11
 1.86368843e-11
 1.86368843e-11
 1.86368843e-11
 1.86368843e-11
 1.86368843e-11
 1.86368843e-11
 1.86368843e-11
 1.86368843e-11
 1.86368843e-11
 1.86368843e-11
 1.86368843e-11
 1.86368843e-11
 1.86368843e-11
 1.86368843e-11
 1.86368843e-11
 1.86368843e-11
 1.86368843e-11
 1.86368843e-11
 1.86368843e-11
 1.86368843e-11
 1.86368843e-11
 1.86368843e-11
 1.86368843e-11
 1.86368843e-11
 1.86368843e-11
 1.86368843e-11
 1.86368843e-11
 1.86368843e-11
 1.86368843e-11
 1.86368843e-11
 1.86368843e-11
 1.86368843e-11
 2.08825588e-06
 2.08825588e-06
 2.08825588e-06
 2.08825588e-06
 2.08825588e-06
 2.08825588e-06
 4.25332751e-06
 4.25332751e-06
 4.25332751e-06
 4.25332751e-06
 4.25332751e-06
 4.25332751e-06
 4.25332751e-06
 4.25332751e-06
 4.25332751e-06
 4.25332751e-06
 4.25332751e-06
 4.25332751e-06
 4.25332751e-06
 4.25332751e-06
 4.25332751e-06
 4.25332751e-06
 3.31825300e-06
 3.31825300e-06
 3.31825300e-06
 3.31825300e-06
 3.31825300e-06
 3.31825300e-06
 3.31825300e-06
 3.31825300e-06
 3.31825300e-06
 3.31825300e-06
 3.31825300e-06
 3.31825300e-06
 6.12718424e-07
 6.12718424e-07
 6.12718424e-07
 6.12718424e-07
 6.12718424e-07
 6.12718424e-07
 6.12718424e-07
 4.97225530e-07
 4.97225530e-07
 4.97225530e-07
 4.97225530e-07
 4.97225530e-07
 4.97225530e-07
 2.81751862e-07
 2.81751862e-07
 2.81751862e-07
 2.81751862e-07
 2.81751862e-07
 2.81751862e-07
 1.37956631e-07
 1.37956631e-07
 5.66261369e-08
 5.66261369e-08
)
)
1
(
101
(
 2.37688815e-11
 2.37688815e-11
 2.37688815e-11
 2.37688815e-11
 2.37688815e-11
 2.37688815e-11
 2.37688815e-11
 2.37688815e-11
 2.37688815e-11
 2.37688815e-11
 2.37688815e-11
 2.37688815e-11
 2.37688815e-11
 2.37688815e-11
 2.37688815e-11
 2.37688815e-11
 2.37688815e-11
 2.37688815e-11
 2.37688815e-11
 2.37688815e-11
 2.37688815e-11
 2.37688815e-11
 2.37688815e-11
 2.37688815e-11
 2.37688815e-11
 2.37688815e-11
 2.37688815e-11
 2.37688815e-11
 2.37688815e-11
 2.37688815e-11
 2.37688815e-11
 2.37688815e-11
 2.37688815e-11
 2.37688815e-11
 2.37688815e-11
 2.37688815e-11
 2.37688815e-11
 2.37688815e-11
 2.37688815e-11
 2.37688815e-11
 2.37688815e-11
 2.37688815e-11
 2.37688815e-11
 2.37688815e-11
 2.25589445e-06
 2.08825588e-06
 2.08825588e-06
 2.08825588e-06
 2.08825588e-06
 2.08825588e-06
 2.08825588e-06
 4.25332751e-06
 4.25332751e-06
 4.25332751e-06
 4.25332751e-06
 4.25332751e-06
 4.25332751e-06
 4.25332751e-06
 4.25332751e-06
 4.25332751e-06
 4.25332751e-06
 4.25332751e-06
 4.25332751e-06
 4.25332751e-06
 4.25332751e-06
 4.25332751e-06
 4.25332751e-06
 3.31825300e-06
 3.31825300e-06
 3.31825300e-06
 3.31825300e-06
 3.31825300e-06
 3.31825300e-06
 3.31825300e-06
 3.31825300e-06
 3.31825300e-06
 3.31825300e-06
 3.31825300e-06
 3.31825300e-06
 8.86390980e-07
 6.12718424e-07
 6.12718424e-07
 6.12718424e-07
 6.12718424e-07
 6.12718424e-07
 6.12718424e-07
 4.97225530e-07
 4.97225530e-07
 4.97225530e-07
 4.97225530e-07
 4.97225530e-07
 4.97225530e-07
 4.97225530e-07
 2.81751862e-07
 2.81751862e-07
 2.81751862e-07
 2.81751862e-07
 2.81751862e-07
 1.37956631e-07
 2.98015605e-08
 2.98015605e-08
)
)
1
(
101
(
 3.92337020e-11
 3.92337020e-11
 3.92337020e-11
 3.92337020e-11
 3.92337020e-11
 3.92337020e-11
 3.92337020e-11
 3.92337020e-11
 3.92337020e-11
 3.92337020e-11
 3.92337020e-11
 3.92337020e-11
 3.92337020e-11
 3.92337020e-11
 3.92337020e-11
 3.92337020e-11
 3.92337020e-11
 3.92337020e-11
 3.92337020e-11
 3.92337020e-11
 3.92337020e-11
 3.92337020e-11
 3.92337020e-11
 3.92337020e-11
 3.92337020e-11
 3.92337020e-11
 3.92337020e-11
 3.92337020e-11
 3.92337020e-11
 3.92337020e-11
 3.92337020e-11
 3.92337020e-11
 3.92337020e-11
 3.92337020e-11
 3.92337020e-11
 3.92337020e-11
 3.92337020e-11
 3.92337020e-11
 3.92337020e-11
 3.92337020e-11
 3.92337020e-11
 3.92337020e-11
 3.92337020e-11
 3.92337020e-11
 2.25589445e-06
 2.25589445e-06
 2.25589445e-06
 2.08825588e-06
 2.08825588e-06
 2.08825588e-06
 2.08825588e-06
 2.08825588e-06
 2.08825588e-06
 4.25332751e-06
 4.25332751e-06
 4.25332751e-06
 4.25332751e-06
 4.25332751e-06
 4.25332751e-06
 4.25332751e-06
 4.25332751e-06
 4.25332751e-06
 4.25332751e-06
 4.25332751e-06
 4.25332751e-06
 4.25332751e-06
 4.25332751e-06
 4.25332751e-06
 3.31825300e-06
 3.31825300e-06
 3.31825300e-06
 3.31825300e-06
 3.31825300e-06
 3.31825300e-06
 3.31825300e-06
 3.31825300e-06
 3.31825300e-06
 3.31825300e-06
 3.31825300e-06
 3.31825300e-06
 8.86390980e-07
 6.12718424e-07
 6.12718424e-07
 6.12718424e-07
 6.12718424e-07
 6.12718424e-07
 6.12718424e-07
 6.12718424e-07
 4.97225530e-07
 4.97225530e-07
 4.97225530e-07
 4.97225530e-07
 4.97225530e-07
 4.97225530e-07
 2.78438356e-07
 2.81751862e-07
 2.81751862e-07
 2.81751862e-07
 1.00925572e-07
 1.00925572e-07
 2.98015605e-08
)
)
1
(
101
(
 4.16313196e-11
 4.16313196e-11
 4.16313196e-11
 4.16313196e-11
 4.16313196e-11
 4.16313196e-11
 4.16313196e-11
 4.16313196e-11
 4.16313196e-11
 4.16313196e-11
 4.16313196e-11
 4.16313196e-11
 4.16313196e-11
 4.16313196e-11
 4.16313196e-11
 4.16313196e-11
 4.16313196e-11
 4.16313196e-11
 4.16313196e-11
 4.16313196e-11
 4.16313196e-11
 4.16313196e-11
 4.16313196e-11
 4.16313196e-11
 4.16313196e-11
 4.16313196e-11
 4.16313196e-11
 4.16313196e-11
 4.16313196e-11
 4.16313196e-11
 4.16313196e-11
 4.16313196e-11
 4.16313196e-11
 4.16313196e-11
 4.16313196e-11
 4.16313196e-11
 4.16313196e-11
 4.16313196e-11
 4.16313196e-11
 4.16313196e-11
 4.16313196e-11
 4.16313196e-11
 1.62246650e-10
 2.25589445e-06
 2.25589445e-06
 2.25589445e-06
 2.25589445e-06
 2.25589445e-06
 2.08825588e-06
 2.08825588e-06
 2.08825588e-06
 2.08825588e-06
 2.08825588e-06
 2.08825588e-06
 4.25332751e-06
 4.25332751e-06
 4.25332751e-06
 4.25332751e-06
 4.25332751e-06
 4.25332751e-06
 4.25332751e-06
 4.25332751e-06
 4.25332751e-06
 4.25332751e-06
 4.25332751e-06
 4.25332751e-06
 4.25332751e-06
 4.25332751e-06
 4.25332751e-06
 4.25332751e-06
 3.31825300e-06
 3.31825300e-06
 3.31825300e-06
 3.31825300e-06
 3.31825300e-06
 3.31825300e-06
 3.31825300e-06
 3.31825300e-06
 3.31825300e-06
 3.31825300e-06
 3.31825300e-06
 8.86390980e-07
 8.86390980e-07
 6.12718424e-07
 6.12718424e-07
 6.12718424e-07
 6.12718424e-07
 6.12718424e-07
 6.12718424e-07
 4.97225530e-07
 4.97225530e-07
 4.97225530e-07
 4.97225530e-07
 4.97225530e-07
 4.97225530e-07
 2.78438356e-07
 2.78438356e-07
 1.82492395e-07
 1.82492395e-07
 1.00925572e-07
 1.00925572e-07
)
)
1
(
101
(
 7.43802208e-11
 7.43802208e-11
 7.43802208e-11
 7.43802208e-11
 7.43802208e-11
 7.43802208e-11
 7.43802208e-11
 7.43802208e-11
 7.43802208e-11
 7.43802208e-11
 7.43802208e-11
 7.43802208e-11
 7.43802208e-11
 7.43802208e-11
 7.43802208e-11
 7.43802208e-11
 7.43802208e-11
 7.43802208e-11
 7.43802208e-11
 7.43802208e-11
 7.43802208e-11
 7.43802208e-11
 7.43802208e-11
 7.43802208e-11
 7.43802208e-11
 7.43802208e-11
 7.43802208e-11
 7.43802208e-11
 7.43802208e-11
 7.43802208e-11
 7.43802208e-11
 7.43802208e-11
 7.43802208e-11
 1.62246650e-10
 1.62246650e-10
 1.62246650e-10
 1.62246650e-10
 1.62246650e-10
 1.62246650e-10
 1.62246650e-10
 1.62246650e-10
 1.62246650e-10
 1.62246650e-10
 2.25589445e-06
 2.25589445e-06
 2.25589445e-06
 2.25589445e-06
 2.25589445e-06
 2.25589445e-06
 2.08825588e-06
 2.08825588e-06
 2.08825588e-06
 2.08825588e-06
 2.08825588e-06
 2.08825588e-06
 2.08825588e-06
 4.25332751e-06
 4.25332751e-06
 4.25332751e-06
 4.25332751e-06
 4.25332751e-06
 4.25332751e-06
 4.25332751e-06
 4.25332751e-06
 4.25332751e-06
 4.25332751e-06
 4.25332751e-06
 4.25332751e-06
 4.25332751e-06
 4.25332751e-06
 4.25332751e-06
 3.31825300e-06
 3.31825300e-06
 3.31825300e-06
 3.31825300e-06
 3.31825300e-06
 3.31825300e-06
 3.31825300e-06
 3.31825300e-06
 3.31825300e-06
 3.31825300e-06
 3.31825300e-06
 8.86390980e-07
 8.86390980e-07
 6.12718424e-07
 6.12718424e-07
 6.12718424e-07
 6.12718424e-07
 6.12718424e-07
 6.12718424e-07
 6.12718424e-07
 4.97225530e-07
 4.97225530e-07
 4.97225530e-07
 4.97225530e-07
 4.97225530e-07
 2.78438356e-07
 2.78438356e-07
 1.82492395e-07
 1.82492395e-07
 1.00925572e-07
)
)
1
(
101
(
 7.20697585e-11
 7.20697585e-11
 7.20697585e-11
 7.20697585e-11
 7.20697585e-11
 7.20697585e-11
 7.20697585e-11
 7.20697585e-11
 7.20697585e-11
 7.20697585e-11
 7.20697585e-11
 7.20697585e-11
 7.20697585e-11
 7.20697585e-11
 7.20697585e-11
 7.20697585e-11
 7.20697585e-11
 7.20697585e-11
 7.20697585e-11
 7.20697585e-11
 7.20697585e-11
 7.20697585e-11
 7.20697585e-11
 7.20697585e-11
 7.20697585e-11
 7.20697585e-11
 1.62246650e-10
 1.62246650e-10
 1.62246650e-10
 1.62246650e-10
 1.62246650e-10
 1.62246650e-10
 1.62246650e-10
 1.62246650e-10
 1.62246650e-10
 1.62246650e-10
 1.62246650e-10
 1.62246650e-10
 1.62246650e-10
 1.62246650e-10
 1.62246650e-10
 1.62246650e-10
 1.62246650e-10
 2.25589445e-06
 2.25589445e-06
 2.25589445e-06
 2.25589445e-06
 2.25589445e-06
 2.25589445e-06
 2.25589445e-06
 2.08825588e-06
 2.08825588e-06
 2.08825588e-06
 2.08825588e-06
 2.08825588e-06
 2.08825588e-06
 2.08825588e-06
 4.25332751e-06
 4.25332751e-06
 4.25332751e-06
 4.25332751e-06
 4.25332751e-06
 4.25332751e-06
 4.25332751e-06
 4.25332751e-06
 4.25332751e-06
 4.25332751e-06
 4.25332751e-06
 4.25332751e-06
 4.25332751e-06
 4.25332751e-06
 4.25332751e-06
 3.31825300e-06
 3.31825300e-06
 3.31825300e-06
 3.31825300e-06
 3.31825300e-06
 3.31825300e-06
 3.31825300e-06
 3.31825300e-06
 3.31825300e-06
 3.31825300e-06
 3.31825300e-06
 8.86390980e-07
 8.86390980e-07
 8.86390980e-07
 6.12718424e-07
 6.12718424e-07
 6.12718424e-07
 6.12718424e-07
 6.12718424e-07
 6.12718424e-07
 5.50897976e-07
 4.97225530e-07
 4.97225530e-07
 4.97225530e-07
 2.34797059e-07
 2.34797059e-07
 2.34797059e-07
 1.82492395e-07
 1.82492395e-07
)
)
1
(
101
(
 7.83276967e-11
 7.83276967e-11
 7.83276967e-11
 7.83276967e-11
 7.83276967e-11
 7.83276967e-11
 7.83276967e-11
 7.83276967e-11
 7.83276967e-11
 7.83276967e-11
 7.83276967e-11
 7.83276967e-11
 7.83276967e-11
 7.83276967e-11
 7.83276967e-11
 7.83276967e-11
 7.83276967e-11
 7.83276967e-11
 7.83276967e-11
 1.62246650e-10
 1.62246650e-10
 1.62246650e-10
 1.62246650e-10
 1.62246650e-10
 1.62246650e-10
 1.62246650e-10
 1.62246650e-10
 1.62246650e-10
 1.62246650e-10
 1.62246650e-10
 1.62246650e-10
 1.62246650e-10
 1.62246650e-10
 1.62246650e-10
 1.62246650e-10
 1.62246650e-10
 1.62246650e-10
 1.62246650e-10
 1.62246650e-10
 1.62246650e-10
 1.62246650e-10
 1.62246650e-10
 2.25589445e-06
 2.25589445e-06
 2.25589445e-06
 2.25589445e-06
 2.25589445e-06
 2.25589445e-06
 2.25589445e-06
 2.25589445e-06
 2.25589445e-06
 2.08825588e-06
 2.08825588e-06
 2.08825588e-06
 2.08825588e-06
 2.08825588e-06
 2.08825588e-06
 2.08825588e-06
 2.08825588e-06
 4.25332751e-06
 4.25332751e-06
 4.25332751e-06
 4.25332751e-06
 4.25332751e-06
 4.25332751e-06
 4.25332751e-06
 4.25332751e-06
 4.25332751e-06
 4.25332751e-06
 4.25332751e-06
 4.25332751e-06
 4.25332751e-06
 4.25332751e-06
 3.31825300e-06
 3.31825300e-06
 3.31825300e-06
 3.31825300e-06
 3.31825300e-06
 3.31825300e-06
 3.31825300e-06
 3.31825300e-06
 3.31825300e-06
 3.31825300e-06
 3.31825300e-06
 8.86390980e-07
 8.86390980e-07
 8.86390980e-07
 6.12718424e-07
 6.12718424e-07
 6.12718424e-07
 6.12718424e-07
 6.12718424e-07
 6.12718424e-07
 5.50897976e-07
 5.50897976e-07
 2.56181069e-07
 2.56181069e-07
 2.34797059e-07
 2.34797059e-07
 2.34797059e-07
 2.34797059e-07
)
)
1
(
101
(
 1.49196363e-10
 1.49196363e-10
 1.49196363e-10
 1.49196363e-10
 1.49196363e-10
 1.49196363e-10
 1.49196363e-10
 1.49196363e-10
 1.49196363e-10
 1.49196363e-10
 1.49196363e-10
 1.49196363e-10
 1.49196363e-10
 1.49196363e-10
 1.62246650e-10
 1.62246650e-10
 1.62246650e-10
 1.62246650e-10
 1.62246650e-10
 1.62246650e-10
 1.62246650e-10
 1.62246650e-10
 1.62246650e-10
 1.62246650e-10
 1.62246650e-10
 1.62246650e-10
 1.62246650e-10
 1.62246650e-10
 1.62246650e-10
 1.62246650e-10
 1.62246650e-10
 1.62246650e-10
 1.62246650e-10
 1.62246650e-10
 1.62246650e-10
 1.62246650e-10
 1.62246650e-10
 1.62246650e-10
 1.62246650e-10
 1.62246650e-10
 1.62246650e-10
 1.62246650e-10
 2.25589445e-06
 2.25589445e-06
 2.25589445e-06
 2.25589445e-06
 2.25589445e-06
 2.25589445e-06
 2.25589445e-06
 2.25589445e-06
 2.25589445e-06
 2.25589445e-06
 2.08825588e-06
 2.08825588e-06
 2.08825588e-06
 2.08825588e-06
 2.08825588e-06
 2.08825588e-06
 2.08825588e-06
 2.08825588e-06
 4.25332751e-06
 4.25332751e-06
 4.25332751e-06
 4.25332751e-06
 4.25332751e-06
 4.25332751e-06
 4.25332751e-06
 4.25332751e-06
 4.25332751e-06
 4.25332751e-06
 4.25332751e-06
 4.25332751e-06
 4.25332751e-06
 4.25332751e-06
 4.25332751e-06
 3.31825300e-06
 3.31825300e-06
 3.31825300e-06
 3.31825300e-06
 3.31825300e-06
 3.31825300e-06
 3.31825300e-06
 3.31825300e-06
 3.31825300e-06
 3.31825300e-06
 8.86390980e-07
 8.86390980e-07
 8.86390980e-07
 8.86390980e-07
 6.12718424e-07
 6.12718424e-07
 6.12718424e-07
 6.12718424e-07
 6.12718424e-07
 5.50897976e-07
 5.50897976e-07
 2.56181069e-07
 2.56181069e-07
 2.34797059e-07
 2.34797059e-07
 2.34797059e-07
)
)
1
(
101
(
 1.17059815e-10
 1.17059815e-10
 1.17059815e-10
 1.17059815e-10
 1.17059815e-10
 1.17059815e-10
 1.17059815e-10
 1.17059815e-10
 1.17059815e-10
 1.62246650e-10
 1.62246650e-10
 1.62246650e-10
 1.62246650e-10
 1.62246650e-10
 1.62246650e-10
 1.62246650e-10
 1.62246650e-10
 1.62246650e-10
 1.62246650e-10
 1.62246650e-10
 1.62246650e-10
 1.62246650e-10
 1.62246650e-10
 1.62246650e-10
 1.62246650e-10
 1.62246650e-10
 1.62246650e-10
 1.62246650e-10
 1.62246650e-10
 1.62246650e-10
 1.62246650e-10
 1.62246650e-10
 1.62246650e-10
 1.62246650e-10
 1.62246650e-10
 1.62246650e-10
 1.62246650e-10
 1.62246650e-10
 1.62246650e-10
 1.62246650e-10
 1.62246650e-10
 1.62246650e-10
 2.25589445e-06
 2.25589445e-06
 2.25589445e-06
 2.25589445e-06
 2.25589445e-06
 2.25589445e-06
 2.25589445e-06
 2.25589445e-06
 2.25589445e-06
 2.25589445e-06
 2.25589445e-06
 2.25589445e-06
 2.08825588e-06
 2.08825588e-06
 2.08825588e-06
 2.08825588e-06
 2.08825588e-06
 2.08825588e-06
 2.08825588e-06
 2.08825588e-06
 4.25332751e-06
 4.25332751e-06
 4.25332751e-06
 4.25332751e-06
 4.25332751e-06
 4.25332751e-06
 4.25332751e-06
 4.25332751e-06
 4.25332751e-06
 4.25332751e-06
 4.25332751e-06
 4.25332751e-06
 4.25332751e-06
 4.25332751e-06
 3.31825300e-06
 3.31825300e-06
 3.31825300e-06
 3.31825300e-06
 3.31825300e-06
 3.31825300e-06
 3.31825300e-06
 3.31825300e-06
 3.31825300e-06
 3.31825300e-06
 8.86390980e-07
 8.86390980e-07
 8.86390980e-07
 8.86390980e-07
 6.09630712e-07
 6.12718424e-07
 6.12718424e-07
 6.12718424e-07
 6.12718424e-07
 5.50897976e-07
 5.50897976e-07
 2.56181069e-07
 2.56181069e-07
 2.34797059e-07
 2.34797059e-07
)
)
1
(
101
(
 1.33377183e-10
 1.33377183e-10
 1.33377183e-10
 1.33377183e-10
 1.33377183e-10
 1.33377183e-10
 1.62246650e-10
 1.62246650e-10
 1.62246650e-10
 1.62246650e-10
 1.62246650e-10
 1.62246650e-10
 1.62246650e-10
 1.62246650e-10
 1.62246650e-10
 1.62246650e-10
 1.62246650e-10
 1.62246650e-10
 1.62246650e-10
 1.62246650e-10
 1.62246650e-10
 1.62246650e-10
 1.62246650e-10
 1.62246650e-10
 1.62246650e-10
 1.62246650e-10
 1.62246650e-10
 1.62246650e-10
 1.62246650e-10
 1.62246650e-10
 1.62246650e-10
 1.62246650e-10
 1.62246650e-10
 1.62246650e-10
 1.62246650e-10
 1.62246650e-10
 1.62246650e-10
 1.62246650e-10
 1.62246650e-10
 1.62246650e-10
 1.62246650e-10
 1.62246650e-10
 2.25589445e-06
 2.25589445e-06
 2.25589445e-06
 2.25589445e-06
 2.25589445e-06
 2.25589445e-06
 2.25589445e-06
 2.25589445e-06
 2.25589445e-06
 2.25589445e-06
 2.25589445e-06
 2.25589445e-06
 2.25589445e-06
 2.08825588e-06
 2.08825588e-06
 2.08825588e-06
 2.08825588e-06
 2.08825588e-06
 2.08825588e-06
 2.08825588e-06
 2.08825588e-06
 4.25332751e-06
 4.25332751e-06
 4.25332751e-06
 4.25332751e-06
 4.25332751e-06
 4.25332751e-06
 4.25332751e-06
 4.25332751e-06
 4.25332751e-06
 4.25332751e-06
 4.25332751e-06
 4.25332751e-06
 4.25332751e-06
 4.25332751e-06
 3.31825300e-06
 3.31825300e-06
 3.31825300e-06
 3.31825300e-06
 3.31825300e-06
 3.31825300e-06
 3.31825300e-06
 3.31825300e-06
 3.31825300e-06
 3.31825300e-06
 8.86390980e-07
 8.86390980e-07
 8.86390980e-07
 8.86390980e-07
 6.09630712e-07
 6.09630712e-07
 3.87402287e-07
 3.87402287e-07
 3.87402287e-07
 5.50897976e-07
 5.50897976e-07
 2.56181069e-07
 2.56181069e-07
 2.34797059e-07
)
)
1
(
101
(
 1.65149356e-10
 1.65149356e-10
 1.65149356e-10
 1.62246650e-10
 1.62246650e-10
 1.62246650e-10
 1.62246650e-10
 1.62246650e-10
 1.62246650e-10
 1.62246650e-10
 1.62246650e-10
 1.62246650e-10
 1.62246650e-10
 1.62246650e-10
 1.62246650e-10
 1.62246650e-10
 1.62246650e-10
 1.62246650e-10
 1.62246650e-10
 1.62246650e-10
 1.62246650e-10
 1.62246650e-10
 1.62246650e-10
 1.62246650e-10
 1.62246650e-10
 1.62246650e-10
 1.62246650e-10
 1.62246650e-10
 1.62246650e-10
 1.62246650e-10
 1.62246650e-10
 1.62246650e-10
 1.62246650e-10
 1.62246650e-10
 1.62246650e-10
 1.62246650e-10
 1.62246650e-10
 1.62246650e-10
 1.62246650e-10
 1.62246650e-10
 1.62246650e-10
 1.80257986e-06
 2.25589445e-06
 2.25589445e-06
 2.25589445e-06
 2.25589445e-06
 2.25589445e-06
 2.25589445e-06
 2.25589445e-06
 2.25589445e-06
 2.25589445e-06
 2.25589445e-06
 2.25589445e-06
 2.25589445e-06
 2.25589445e-06
 2.25589445e-06
 2.08825588e-06
 2.08825588e-06
 2.08825588e-06
 2.08825588e-06
 2.08825588e-06
 2.08825588e-06
 2.08825588e-06
 2.08825588e-06
 2.08825588e-06
 4.25332751e-06
 4.25332751e-06
 4.25332751e-06
 4.25332751e-06
 4.25332751e-06
 4.25332751e-06
 4.25332751e-06
 4.25332751e-06
 4.25332751e-06
 4.25332751e-06
 4.25332751e-06
 4.25332751e-06
 4.25332751e-06
 3.31825300e-06
 3.31825300e-06
 3.31825300e-06
 3.31825300e-06
 3.31825300e-06
 3.31825300e-06
 3.31825300e-06
 3.31825300e-06
 3.31825300e-06
 3.31825300e-06
 8.86390980e-07
 8.86390980e-07
 8.86390980e-07
 8.86390980e-07
 6.09630712e-07
 6.09630712e-07
 3.87402287e-07
 3.87402287e-07
 3.87402287e-07
 3.87402287e-07
 5.50897976e-07
 2.56181069e-07
 2.56181069e-07
)
)
1
(
101
(
 5.08105484e-11
 5.08105484e-11
 1.62246650e-10
 1.62246650e-10
 1.62246650e-10
 1.62246650e-10
 1.62246650e-10
 1.62246650e-10
 1.62246650e-10
 1.62246650e-10
 1.62246650e-10
 1.62246650e-10
 1.62246650e-10
 1.62246650e-10
 1.62246650e-10
 1.62246650e-10
 1.62246650e-10
 1.62246650e-10
 1.62246650e-10
 1.62246650e-10
 1.62246650e-10
 1.62246650e-10
 1.62246650e-10
 1.62246650e-10
 1.62246650e-10
 1.62246650e-10
 1.62246650e-10
 1.62246650e-10
 1.62246650e-10
 1.62246650e-10
 1.62246650e-10
 1.62246650e-10
 1.62246650e-10
 1.62246650e-10
 1.62246650e-10
 1.62246650e-10
 1.62246650e-10
 1.62246650e-10
 1.62246650e-10
 1.62246650e-10
 1.62246650e-10
 1.80257986e-06
 1.80257986e-06
 2.25589445e-06
 2.25589445e-06
 2.25589445e-06
 2.25589445e-06
 2.25589445e-06
 2.25589445e-06
 2.25589445e-06
 2.25589445e-06
 2.25589445e-06
 2.25589445e-06
 2.25589445e-06
 2.25589445e-06
 2.25589445e-06
 2.25589445e-06
 2.08825588e-06
 2.08825588e-06
 2.08825588e-06
 2.08825588e-06
 2.08825588e-06
 2.08825588e-06
 2.08825588e-06
 2.08825588e-06
 2.08825588e-06
 4.25332751e-06
 4.25332751e-06
 4.25332751e-06
 4.25332751e-06
 4.25332751e-06
 4.25332751e-06
 4.25332751e-06
 4.25332751e-06
 4.25332751e-06
 4.25332751e-06
 4.25332751e-06
 4.25332751e-06
 4.25332751e-06
 4.25332751e-06
 3.31825300e-06
 3.31825300e-06
 3.31825300e-06
 3.31825300e-06
 3.31825300e-06
 3.31825300e-06
 3.31825300e-06
 3.31825300e-06
 7.56018298e-07
 8.86390980e-07
 8.86390980e-07
 8.86390980e-07
 1.57116997e-07
 1.57116997e-07
 1.57116997e-07
 3.87402287e-07
 3.87402287e-07
 3.87402287e-07
 3.87402287e-07
 3.87402287e-07
 2.56181069e-07
)
)
1
(
101
(
 2.43748019e-18
 1.62246650e-10
 1.62246650e-10
 1.62246650e-10
 1.62246650e-10
 1.62246650e-10
 1.62246650e-10
 1.62246650e-10
 1.62246650e-10
 1.62246650e-10
 1.62246650e-10
 1.62246650e-10
 1.62246650e-10
 1.62246650e-10
 1.62246650e-10
 1.62246650e-10
 1.62246650e-10
 1.62246650e-10
 1.62246650e-10
 1.62246650e-10
 1.62246650e-10
 1.62246650e-10
 1.62246650e-10
 1.62246650e-10
 1.62246650e-10
 1.62246650e-10
 1.62246650e-10
 1.62246650e-10
 1.62246650e-10
 1.62246650e-10
 1.62246650e-10
 1.62246650e-10
 1.62246650e-10
 1.62246650e-10
 1.62246650e-10
 1.62246650e-10
 1.62246650e-10
 1.62246650e-10
 1.62246650e-10
 1.62246650e-10
 1.80257986e-06
 1.80257986e-06
 1.80257986e-06
 1.80257986e-06
 2.25589445e-06
 2.25589445e-06
 2.25589445e-06
 2.25589445e-06
 2.25589445e-06
 2.25589445e-06
 2.25589445e-06
 2.25589445e-06
 2.25589445e-06
 2.25589445e-06
 2.25589445e-06
 2.25589445e-06
 2.25589445e-06
 2.25589445e-06
 2.08825588e-06
 2.08825588e-06
 2.08825588e-06
 2.08825588e-06
 2.08825588e-06
 2.08825588e-06
 2.08825588e-06
 2.08825588e-06
 2.08825588e-06
 2.08825588e-06
 4.25332751e-06
 4.25332751e-06
 4.25332751e-06
 4.25332751e-06
 4.25332751e-06
 4.25332751e-06
 4.25332751e-06
 4.25332751e-06
 4.25332751e-06
 4.25332751e-06
 4.25332751e-06
 4.25332751e-06
 4.25332751e-06
 1.49934338e-06
 3.31825300e-06
 3.31825300e-06
 3.31825300e-06
 3.31825300e-06
 3.31825300e-06
 3.31825300e-06
 3.31825300e-06
 7.56018298e-07
 7.56018298e-07
 4.53051261e-07
 4.53051261e-07
 1.57116997e-07
 1.57116997e-07
 1.57116997e-07
 1.57116997e-07
 3.87402287e-07
 3.87402287e-07
 3.87402287e-07
 3.87402287e-07
)
)
1
(
101
(
 2.43748019e-18
 1.90009005e-10
 1.90009005e-10
 1.90009005e-10
 1.90009005e-10
 1.90009005e-10
 1.90009005e-10
 1.90009005e-10
 1.90009005e-10
 1.90009005e-10
 1.90009005e-10
 1.90009005e-10
 1.90009005e-10
 1.90009005e-10
 1.90009005e-10
 1.90009005e-10
 1.90009005e-10
 1.90009005e-10
 1.90009005e-10
 1.90009005e-10
 1.90009005e-10
 1.90009005e-10
 1.90009005e-10
 1.90009005e-10
 1.90009005e-10
 1.90009005e-10
 1.90009005e-10
 1.90009005e-10
 1.90009005e-10
 1.90009005e-10
 1.90009005e-10
 1.90009005e-10
 1.90009005e-10
 1.90009005e-10
 1.90009005e-10
 1.90009005e-10
 1.90009005e-10
 1.90009005e-10
 1.90009005e-10
 1.90009005e-10
 1.80257986e-06
 1.80257986e-06
 1.80257986e-06
 1.80257986e-06
 1.80257986e-06
 2.25589445e-06
 2.25589445e-06
 2.25589445e-06
 2.25589445e-06
 2.25589445e-06
 2.25589445e-06
 2.25589445e-06
 2.25589445e-06
 2.25589445e-06
 2.25589445e-06
 2.25589445e-06
 2.25589445e-06
 2.25589445e-06
 2.25589445e-06
 2.08825588e-06
 2.08825588e-06
 2.08825588e-06
 2.08825588e-06
 2.08825588e-06
 2.08825588e-06
 2.08825588e-06
 2.08825588e-06
 2.08825588e-06
 2.08825588e-06
 4.25332751e-06
 4.25332751e-06
 4.25332751e-06
 4.25332751e-06
 4.25332751e-06
 4.25332751e-06
 4.25332751e-06
 4.25332751e-06
 4.25332751e-06
 4.25332751e-06
 4.25332751e-06
 4.25332751e-06
 4.25332751e-06
 1.49934338e-06
 1.49934338e-06
 3.31825300e-06
 3.31825300e-06
 3.31825300e-06
 3.31825300e-06
 3.31825300e-06
 7.56018298e-07
 7.56018298e-07
 7.56018298e-07
 4.53051261e-07
 4.53051261e-07
 1.57116997e-07
 1.57116997e-07
 1.57116997e-07
 1.57116997e-07
 1.57116997e-07
 3.87402287e-07
 3.87402287e-07
)
)
1
(
101
(
 2.37777156e-10
 2.37777156e-10
 2.37777156e-10
 2.37777156e-10
 2.37777156e-10
 2.37777156e-10
 2.37777156e-10
 2.37777156e-10
 2.37777156e-10
 2.37777156e-10
 2.37777156e-10
 2.37777156e-10
 2.37777156e-10
 2.37777156e-10
 2.37777156e-10
 2.37777156e-10
 2.37777156e-10
 2.37777156e-10
 2.37777156e-10
 2.37777156e-10
 2.37777156e-10
 2.37777156e-10
 2.37777156e-10
 2.37777156e-10
 2.37777156e-10
 2.37777156e-10
 2.37777156e-10
 2.37777156e-10
 2.37777156e-10
 2.37777156e-10
 2.37777156e-10
 2.37777156e-10
 2.37777156e-10
 2.37777156e-10
 2.37777156e-10
 2.37777156e-10
 2.37777156e-10
 2.37777156e-10
 2.37777156e-10
 2.37777156e-10
 1.80257986e-06
 1.80257986e-06
 1.80257986e-06
 1.80257986e-06
 1.80257986e-06
 1.80257986e-06
 2.25589445e-06
 2.25589445e-06
 2.25589445e-06
 2.25589445e-06
 2.25589445e-06
 2.25589445e-06
 2.25589445e-06
 2.25589445e-06
 2.25589445e-06
 2.25589445e-06
 2.25589445e-06
 2.25589445e-06
 2.25589445e-06
 2.25589445e-06
 2.25589445e-06
 2.08825588e-06
 2.08825588e-06
 2.08825588e-06
 2.08825588e-06
 2.08825588e-06
 2.08825588e-06
 2.08825588e-06
 2.08825588e-06
 2.08825588e-06
 2.08825588e-06
 4.25332751e-06
 4.25332751e-06
 4.25332751e-06
 4.25332751e-06
 4.25332751e-06
 4.25332751e-06
 4.25332751e-06
 4.25332751e-06
 4.25332751e-06
 4.25332751e-06
 4.25332751e-06
 4.25332751e-06
 1.49934338e-06
 1.49934338e-06
 1.49934338e-06
 3.31825300e-06
 3.31825300e-06
 3.31825300e-06
 3.31825300e-06
 7.56018298e-07
 7.56018298e-07
 7.56018298e-07
 4.53051261e-07
 4.53051261e-07
 1.57116997e-07
 1.57116997e-07
 1.57116997e-07
 1.57116997e-07
 1.57116997e-07
 1.57116997e-07
)
)
1
(
101
(
 2.74160884e-10
 2.74160884e-10
 2.74160884e-10
 2.74160884e-10
 2.74160884e-10
 2.74160884e-10
 2.74160884e-10
 2.74160884e-10
 2.74160884e-10
 2.74160884e-10
 2.74160884e-10
 2.74160884e-10
 2.74160884e-10
 2.74160884e-10
 2.74160884e-10
 2.74160884e-10
 2.74160884e-10
 2.74160884e-10
 2.74160884e-10
 2.74160884e-10
 2.74160884e-10
 2.74160884e-10
 2.74160884e-10
 2.74160884e-10
 2.74160884e-10
 2.74160884e-10
 2.74160884e-10
 2.74160884e-10
 2.74160884e-10
 2.74160884e-10
 2.74160884e-10
 2.74160884e-10
 2.74160884e-10
 2.74160884e-10
 2.74160884e-10
 2.74160884e-10
 2.74160884e-10
 2.74160884e-10
 2.74160884e-10
 1.80257986e-06
 1.80257986e-06
 1.80257986e-06
 1.80257986e-06
 1.80257986e-06
 1.80257986e-06
 1.80257986e-06
 1.80257986e-06
 1.80257986e-06
 2.25589445e-06
 2.25589445e-06
 2.25589445e-06
 2.25589445e-06
 2.25589445e-06
 2.25589445e-06
 2.25589445e-06
 2.25589445e-06
 2.25589445e-06
 2.25589445e-06
 2.25589445e-06
 2.25589445e-06
 2.25589445e-06
 2.25589445e-06
 2.08825588e-06
 2.08825588e-06
 2.08825588e-06
 2.08825588e-06
 2.08825588e-06
 2.08825588e-06
 2.08825588e-06
 2.08825588e-06
 2.08825588e-06
 2.08825588e-06
 4.25332751e-06
 4.25332751e-06
 4.25332751e-06
 4.25332751e-06
 4.25332751e-06
 4.25332751e-06
 4.25332751e-06
 4.25332751e-06
 4.25332751e-06
 4.25332751e-06
 4.25332751e-06
 4.25332751e-06
 1.49934338e-06
 1.49934338e-06
 1.49934338e-06
 1.49934338e-06
 9.92802699e-07
 9.92802699e-07
 9.92802699e-07
 7.56018298e-07
 7.56018298e-07
 7.56018298e-07
 4.53051261e-07
 4.53051261e-07
 1.57116997e-07
 1.57116997e-07