/*--------------------------------*- C++ -*----------------------------------*\
| =========                 |                                                 |
| \\      /  F ield        | OpenFOAM: The Open Source CFD Toolbox           |
|  \\    /   O peration    | Version:  7                                     |
|   \\  /    A nd          | Web:      http://www.OpenFOAM.com               |
|    \\/     M anipulation |                                                 |
\*---------------------------------------------------------------------------*/

FoamFile
{
    version     2.0;
    format      ascii;
    class       dictionary;
    object      Y_CH3_table;
}

Y_CH3_table
2
(
101
(
1
(
101
(
 4.86637370e-16
 4.86637370e-16
 4.86637370e-16
 4.86637370e-16
 4.86637370e-16
 4.86637370e-16
 4.86637370e-16
 4.86637370e-16
 4.86637370e-16
 4.86637370e-16
 4.86637370e-16
 4.86637370e-16
 4.86637370e-16
 4.86637370e-16
 4.86637370e-16
 4.86637370e-16
 4.86637370e-16
 4.86637370e-16
 4.86637370e-16
 4.86637370e-16
 4.86637370e-16
 4.86637370e-16
 4.86637370e-16
 4.86637370e-16
 4.86637370e-16
 4.86637370e-16
 4.86637370e-16
 4.86637370e-16
 4.86637370e-16
 4.86637370e-16
 4.86637370e-16
 4.86637370e-16
 4.86637370e-16
 4.86637370e-16
 4.86637370e-16
 4.86637370e-16
 4.86637370e-16
 4.86637370e-16
 4.86637370e-16
 4.86637370e-16
 4.86637370e-16
 4.86637370e-16
 4.86637370e-16
 4.86637370e-16
 4.86637370e-16
 5.21573724e-07
 5.21573724e-07
 1.20045825e-06
 1.20045825e-06
 1.20045825e-06
 1.20045825e-06
 1.20045825e-06
 1.20045825e-06
 1.20045825e-06
 1.20045825e-06
 1.20045825e-06
 1.20045825e-06
 1.20045825e-06
 1.20045825e-06
 1.20045825e-06
 1.20045825e-06
 1.20045825e-06
 1.20045825e-06
 8.80718516e-07
 8.80718516e-07
 8.80718516e-07
 8.80718516e-07
 8.80718516e-07
 8.80718516e-07
 8.80718516e-07
 8.80718516e-07
 8.80718516e-07
 8.80718516e-07
 8.80718516e-07
 8.80718516e-07
 1.43091412e-07
 1.43091412e-07
 1.43091412e-07
 1.43091412e-07
 1.43091412e-07
 1.43091412e-07
 1.43091412e-07
 1.33257307e-07
 1.33257307e-07
 1.33257307e-07
 1.33257307e-07
 1.33257307e-07
 1.33257307e-07
 8.28035516e-08
 8.28035516e-08
 8.28035516e-08
 8.28035516e-08
 8.28035516e-08
 8.28035516e-08
 8.28035516e-08
 1.69261462e-08
 1.69261462e-08
 1.69261462e-08
 1.69261462e-08
 1.69261462e-08
 2.22449618e-10
)
)
1
(
101
(
 3.84221733e-14
 3.84221733e-14
 3.84221733e-14
 3.84221733e-14
 3.84221733e-14
 3.84221733e-14
 3.84221733e-14
 3.84221733e-14
 3.84221733e-14
 3.84221733e-14
 3.84221733e-14
 3.84221733e-14
 3.84221733e-14
 3.84221733e-14
 3.84221733e-14
 3.84221733e-14
 3.84221733e-14
 3.84221733e-14
 3.84221733e-14
 3.84221733e-14
 3.84221733e-14
 3.84221733e-14
 3.84221733e-14
 3.84221733e-14
 3.84221733e-14
 3.84221733e-14
 3.84221733e-14
 3.84221733e-14
 3.84221733e-14
 3.84221733e-14
 3.84221733e-14
 3.84221733e-14
 3.84221733e-14
 3.84221733e-14
 3.84221733e-14
 3.84221733e-14
 3.84221733e-14
 3.84221733e-14
 3.84221733e-14
 3.84221733e-14
 3.84221733e-14
 3.84221733e-14
 3.84221733e-14
 3.84221733e-14
 3.84221733e-14
 5.21573724e-07
 5.21573724e-07
 5.21573724e-07
 1.20045825e-06
 1.20045825e-06
 1.20045825e-06
 1.20045825e-06
 1.20045825e-06
 1.20045825e-06
 1.20045825e-06
 1.20045825e-06
 1.20045825e-06
 1.20045825e-06
 1.20045825e-06
 1.20045825e-06
 1.20045825e-06
 1.20045825e-06
 1.20045825e-06
 1.20045825e-06
 1.20045825e-06
 8.80718516e-07
 8.80718516e-07
 8.80718516e-07
 8.80718516e-07
 8.80718516e-07
 8.80718516e-07
 8.80718516e-07
 8.80718516e-07
 8.80718516e-07
 8.80718516e-07
 8.80718516e-07
 8.80718516e-07
 1.43091412e-07
 1.43091412e-07
 1.43091412e-07
 1.43091412e-07
 1.43091412e-07
 1.43091412e-07
 1.33257307e-07
 1.33257307e-07
 1.33257307e-07
 1.33257307e-07
 1.33257307e-07
 1.33257307e-07
 1.33257307e-07
 8.28035516e-08
 8.28035516e-08
 8.28035516e-08
 8.28035516e-08
 8.28035516e-08
 8.28035516e-08
 4.21304180e-08
 1.69261462e-08
 1.69261462e-08
 1.69261462e-08
 5.91066267e-09
)
)
1
(
101
(
 1.19992607e-13
 1.19992607e-13
 1.19992607e-13
 1.19992607e-13
 1.19992607e-13
 1.19992607e-13
 1.19992607e-13
 1.19992607e-13
 1.19992607e-13
 1.19992607e-13
 1.19992607e-13
 1.19992607e-13
 1.19992607e-13
 1.19992607e-13
 1.19992607e-13
 1.19992607e-13
 1.19992607e-13
 1.19992607e-13
 1.19992607e-13
 1.19992607e-13
 1.19992607e-13
 1.19992607e-13
 1.19992607e-13
 1.19992607e-13
 1.19992607e-13
 1.19992607e-13
 1.19992607e-13
 1.19992607e-13
 1.19992607e-13
 1.19992607e-13
 1.19992607e-13
 1.19992607e-13
 1.19992607e-13
 1.19992607e-13
 1.19992607e-13
 1.19992607e-13
 1.19992607e-13
 1.19992607e-13
 1.19992607e-13
 1.19992607e-13
 1.19992607e-13
 1.19992607e-13
 1.19992607e-13
 1.19992607e-13
 5.21573724e-07
 5.21573724e-07
 5.21573724e-07
 5.21573724e-07
 5.21573724e-07
 5.21573724e-07
 1.20045825e-06
 1.20045825e-06
 1.20045825e-06
 1.20045825e-06
 1.20045825e-06
 1.20045825e-06
 1.20045825e-06
 1.20045825e-06
 1.20045825e-06
 1.20045825e-06
 1.20045825e-06
 1.20045825e-06
 1.20045825e-06
 1.20045825e-06
 1.20045825e-06
 1.20045825e-06
 8.80718516e-07
 8.80718516e-07
 8.80718516e-07
 8.80718516e-07
 8.80718516e-07
 8.80718516e-07
 8.80718516e-07
 8.80718516e-07
 8.80718516e-07
 8.80718516e-07
 8.80718516e-07
 8.80718516e-07
 1.43091412e-07
 1.43091412e-07
 1.43091412e-07
 1.43091412e-07
 1.43091412e-07
 1.43091412e-07
 1.43091412e-07
 1.33257307e-07
 1.33257307e-07
 1.33257307e-07
 1.33257307e-07
 1.33257307e-07
 1.33257307e-07
 8.28035516e-08
 8.28035516e-08
 8.28035516e-08
 8.28035516e-08
 8.28035516e-08
 8.28035516e-08
 4.21304180e-08
 4.21304180e-08
 1.87936530e-08
 1.87936530e-08
)
)
1
(
101
(
 1.75801919e-13
 1.75801919e-13
 1.75801919e-13
 1.75801919e-13
 1.75801919e-13
 1.75801919e-13
 1.75801919e-13
 1.75801919e-13
 1.75801919e-13
 1.75801919e-13
 1.75801919e-13
 1.75801919e-13
 1.75801919e-13
 1.75801919e-13
 1.75801919e-13
 1.75801919e-13
 1.75801919e-13
 1.75801919e-13
 1.75801919e-13
 1.75801919e-13
 1.75801919e-13
 1.75801919e-13
 1.75801919e-13
 1.75801919e-13
 1.75801919e-13
 1.75801919e-13
 1.75801919e-13
 1.75801919e-13
 1.75801919e-13
 1.75801919e-13
 1.75801919e-13
 1.75801919e-13
 1.75801919e-13
 1.75801919e-13
 1.75801919e-13
 1.75801919e-13
 1.75801919e-13
 1.75801919e-13
 1.75801919e-13
 1.75801919e-13
 1.75801919e-13
 1.75801919e-13
 1.75801919e-13
 1.75801919e-13
 5.70651069e-07
 5.21573724e-07
 5.21573724e-07
 5.21573724e-07
 5.21573724e-07
 5.21573724e-07
 5.21573724e-07
 1.20045825e-06
 1.20045825e-06
 1.20045825e-06
 1.20045825e-06
 1.20045825e-06
 1.20045825e-06
 1.20045825e-06
 1.20045825e-06
 1.20045825e-06
 1.20045825e-06
 1.20045825e-06
 1.20045825e-06
 1.20045825e-06
 1.20045825e-06
 1.20045825e-06
 1.20045825e-06
 8.80718516e-07
 8.80718516e-07
 8.80718516e-07
 8.80718516e-07
 8.80718516e-07
 8.80718516e-07
 8.80718516e-07
 8.80718516e-07
 8.80718516e-07
 8.80718516e-07
 8.80718516e-07
 8.80718516e-07
 2.08250326e-07
 1.43091412e-07
 1.43091412e-07
 1.43091412e-07
 1.43091412e-07
 1.43091412e-07
 1.43091412e-07
 1.33257307e-07
 1.33257307e-07
 1.33257307e-07
 1.33257307e-07
 1.33257307e-07
 1.33257307e-07
 1.33257307e-07
 8.28035516e-08
 8.28035516e-08
 8.28035516e-08
 8.28035516e-08
 8.28035516e-08
 4.21304180e-08
 4.35065993e-09
 4.35065993e-09
)
)
1
(
101
(
 3.40002809e-13
 3.40002809e-13
 3.40002809e-13
 3.40002809e-13
 3.40002809e-13
 3.40002809e-13
 3.40002809e-13
 3.40002809e-13
 3.40002809e-13
 3.40002809e-13
 3.40002809e-13
 3.40002809e-13
 3.40002809e-13
 3.40002809e-13
 3.40002809e-13
 3.40002809e-13
 3.40002809e-13
 3.40002809e-13
 3.40002809e-13
 3.40002809e-13
 3.40002809e-13
 3.40002809e-13
 3.40002809e-13
 3.40002809e-13
 3.40002809e-13
 3.40002809e-13
 3.40002809e-13
 3.40002809e-13
 3.40002809e-13
 3.40002809e-13
 3.40002809e-13
 3.40002809e-13
 3.40002809e-13
 3.40002809e-13
 3.40002809e-13
 3.40002809e-13
 3.40002809e-13
 3.40002809e-13
 3.40002809e-13
 3.40002809e-13
 3.40002809e-13
 3.40002809e-13
 3.40002809e-13
 3.40002809e-13
 5.70651069e-07
 5.70651069e-07
 5.70651069e-07
 5.21573724e-07
 5.21573724e-07
 5.21573724e-07
 5.21573724e-07
 5.21573724e-07
 5.21573724e-07
 1.20045825e-06
 1.20045825e-06
 1.20045825e-06
 1.20045825e-06
 1.20045825e-06
 1.20045825e-06
 1.20045825e-06
 1.20045825e-06
 1.20045825e-06
 1.20045825e-06
 1.20045825e-06
 1.20045825e-06
 1.20045825e-06
 1.20045825e-06
 1.20045825e-06
 8.80718516e-07
 8.80718516e-07
 8.80718516e-07
 8.80718516e-07
 8.80718516e-07
 8.80718516e-07
 8.80718516e-07
 8.80718516e-07
 8.80718516e-07
 8.80718516e-07
 8.80718516e-07
 8.80718516e-07
 2.08250326e-07
 1.43091412e-07
 1.43091412e-07
 1.43091412e-07
 1.43091412e-07
 1.43091412e-07
 1.43091412e-07
 1.43091412e-07
 1.33257307e-07
 1.33257307e-07
 1.33257307e-07
 1.33257307e-07
 1.33257307e-07
 1.33257307e-07
 6.85974466e-08
 8.28035516e-08
 8.28035516e-08
 8.28035516e-08
 2.46720289e-08
 2.46720289e-08
 4.35065993e-09
)
)
1
(
101
(
 4.23062072e-13
 4.23062072e-13
 4.23062072e-13
 4.23062072e-13
 4.23062072e-13
 4.23062072e-13
 4.23062072e-13
 4.23062072e-13
 4.23062072e-13
 4.23062072e-13
 4.23062072e-13
 4.23062072e-13
 4.23062072e-13
 4.23062072e-13
 4.23062072e-13
 4.23062072e-13
 4.23062072e-13
 4.23062072e-13
 4.23062072e-13
 4.23062072e-13
 4.23062072e-13
 4.23062072e-13
 4.23062072e-13
 4.23062072e-13
 4.23062072e-13
 4.23062072e-13
 4.23062072e-13
 4.23062072e-13
 4.23062072e-13
 4.23062072e-13
 4.23062072e-13
 4.23062072e-13
 4.23062072e-13
 4.23062072e-13
 4.23062072e-13
 4.23062072e-13
 4.23062072e-13
 4.23062072e-13
 4.23062072e-13
 4.23062072e-13
 4.23062072e-13
 4.23062072e-13
 7.47781474e-12
 5.70651069e-07
 5.70651069e-07
 5.70651069e-07
 5.70651069e-07
 5.70651069e-07
 5.21573724e-07
 5.21573724e-07
 5.21573724e-07
 5.21573724e-07
 5.21573724e-07
 5.21573724e-07
 1.20045825e-06
 1.20045825e-06
 1.20045825e-06
 1.20045825e-06
 1.20045825e-06
 1.20045825e-06
 1.20045825e-06
 1.20045825e-06
 1.20045825e-06
 1.20045825e-06
 1.20045825e-06
 1.20045825e-06
 1.20045825e-06
 1.20045825e-06
 1.20045825e-06
 1.20045825e-06
 8.80718516e-07
 8.80718516e-07
 8.80718516e-07
 8.80718516e-07
 8.80718516e-07
 8.80718516e-07
 8.80718516e-07
 8.80718516e-07
 8.80718516e-07
 8.80718516e-07
 8.80718516e-07
 2.08250326e-07
 2.08250326e-07
 1.43091412e-07
 1.43091412e-07
 1.43091412e-07
 1.43091412e-07
 1.43091412e-07
 1.43091412e-07
 1.33257307e-07
 1.33257307e-07
 1.33257307e-07
 1.33257307e-07
 1.33257307e-07
 1.33257307e-07
 6.85974466e-08
 6.85974466e-08
 4.70123537e-08
 4.70123537e-08
 2.46720289e-08
 2.46720289e-08
)
)
1
(
101
(
 9.01781027e-13
 9.01781027e-13
 9.01781027e-13
 9.01781027e-13
 9.01781027e-13
 9.01781027e-13
 9.01781027e-13
 9.01781027e-13
 9.01781027e-13
 9.01781027e-13
 9.01781027e-13
 9.01781027e-13
 9.01781027e-13
 9.01781027e-13
 9.01781027e-13
 9.01781027e-13
 9.01781027e-13
 9.01781027e-13
 9.01781027e-13
 9.01781027e-13
 9.01781027e-13
 9.01781027e-13
 9.01781027e-13
 9.01781027e-13
 9.01781027e-13
 9.01781027e-13
 9.01781027e-13
 9.01781027e-13
 9.01781027e-13
 9.01781027e-13
 9.01781027e-13
 9.01781027e-13
 9.01781027e-13
 7.47781474e-12
 7.47781474e-12
 7.47781474e-12
 7.47781474e-12
 7.47781474e-12
 7.47781474e-12
 7.47781474e-12
 7.47781474e-12
 7.47781474e-12
 7.47781474e-12
 5.70651069e-07
 5.70651069e-07
 5.70651069e-07
 5.70651069e-07
 5.70651069e-07
 5.70651069e-07
 5.21573724e-07
 5.21573724e-07
 5.21573724e-07
 5.21573724e-07
 5.21573724e-07
 5.21573724e-07
 5.21573724e-07
 1.20045825e-06
 1.20045825e-06
 1.20045825e-06
 1.20045825e-06
 1.20045825e-06
 1.20045825e-06
 1.20045825e-06
 1.20045825e-06
 1.20045825e-06
 1.20045825e-06
 1.20045825e-06
 1.20045825e-06
 1.20045825e-06
 1.20045825e-06
 1.20045825e-06
 8.80718516e-07
 8.80718516e-07
 8.80718516e-07
 8.80718516e-07
 8.80718516e-07
 8.80718516e-07
 8.80718516e-07
 8.80718516e-07
 8.80718516e-07
 8.80718516e-07
 8.80718516e-07
 2.08250326e-07
 2.08250326e-07
 1.43091412e-07
 1.43091412e-07
 1.43091412e-07
 1.43091412e-07
 1.43091412e-07
 1.43091412e-07
 1.43091412e-07
 1.33257307e-07
 1.33257307e-07
 1.33257307e-07
 1.33257307e-07
 1.33257307e-07
 6.85974466e-08
 6.85974466e-08
 4.70123537e-08
 4.70123537e-08
 2.46720289e-08
)
)
1
(
101
(
 1.05786326e-12
 1.05786326e-12
 1.05786326e-12
 1.05786326e-12
 1.05786326e-12
 1.05786326e-12
 1.05786326e-12
 1.05786326e-12
 1.05786326e-12
 1.05786326e-12
 1.05786326e-12
 1.05786326e-12
 1.05786326e-12
 1.05786326e-12
 1.05786326e-12
 1.05786326e-12
 1.05786326e-12
 1.05786326e-12
 1.05786326e-12
 1.05786326e-12
 1.05786326e-12
 1.05786326e-12
 1.05786326e-12
 1.05786326e-12
 1.05786326e-12
 1.05786326e-12
 7.47781474e-12
 7.47781474e-12
 7.47781474e-12
 7.47781474e-12
 7.47781474e-12
 7.47781474e-12
 7.47781474e-12
 7.47781474e-12
 7.47781474e-12
 7.47781474e-12
 7.47781474e-12
 7.47781474e-12
 7.47781474e-12
 7.47781474e-12
 7.47781474e-12
 7.47781474e-12
 7.47781474e-12
 5.70651069e-07
 5.70651069e-07
 5.70651069e-07
 5.70651069e-07
 5.70651069e-07
 5.70651069e-07
 5.70651069e-07
 5.21573724e-07
 5.21573724e-07
 5.21573724e-07
 5.21573724e-07
 5.21573724e-07
 5.21573724e-07
 5.21573724e-07
 1.20045825e-06
 1.20045825e-06
 1.20045825e-06
 1.20045825e-06
 1.20045825e-06
 1.20045825e-06
 1.20045825e-06
 1.20045825e-06
 1.20045825e-06
 1.20045825e-06
 1.20045825e-06
 1.20045825e-06
 1.20045825e-06
 1.20045825e-06
 1.20045825e-06
 8.80718516e-07
 8.80718516e-07
 8.80718516e-07
 8.80718516e-07
 8.80718516e-07
 8.80718516e-07
 8.80718516e-07
 8.80718516e-07
 8.80718516e-07
 8.80718516e-07
 8.80718516e-07
 2.08250326e-07
 2.08250326e-07
 2.08250326e-07
 1.43091412e-07
 1.43091412e-07
 1.43091412e-07
 1.43091412e-07
 1.43091412e-07
 1.43091412e-07
 1.33772875e-07
 1.33257307e-07
 1.33257307e-07
 1.33257307e-07
 5.45850511e-08
 5.45850511e-08
 5.45850511e-08
 4.70123537e-08
 4.70123537e-08
)
)
1
(
101
(
 1.35038778e-12
 1.35038778e-12
 1.35038778e-12
 1.35038778e-12
 1.35038778e-12
 1.35038778e-12
 1.35038778e-12
 1.35038778e-12
 1.35038778e-12
 1.35038778e-12
 1.35038778e-12
 1.35038778e-12
 1.35038778e-12
 1.35038778e-12
 1.35038778e-12
 1.35038778e-12
 1.35038778e-12
 1.35038778e-12
 1.35038778e-12
 7.47781474e-12
 7.47781474e-12
 7.47781474e-12
 7.47781474e-12
 7.47781474e-12
 7.47781474e-12
 7.47781474e-12
 7.47781474e-12
 7.47781474e-12
 7.47781474e-12
 7.47781474e-12
 7.47781474e-12
 7.47781474e-12
 7.47781474e-12
 7.47781474e-12
 7.47781474e-12
 7.47781474e-12
 7.47781474e-12
 7.47781474e-12
 7.47781474e-12
 7.47781474e-12
 7.47781474e-12
 7.47781474e-12
 5.70651069e-07
 5.70651069e-07
 5.70651069e-07
 5.70651069e-07
 5.70651069e-07
 5.70651069e-07
 5.70651069e-07
 5.70651069e-07
 5.70651069e-07
 5.21573724e-07
 5.21573724e-07
 5.21573724e-07
 5.21573724e-07
 5.21573724e-07
 5.21573724e-07
 5.21573724e-07
 5.21573724e-07
 1.20045825e-06
 1.20045825e-06
 1.20045825e-06
 1.20045825e-06
 1.20045825e-06
 1.20045825e-06
 1.20045825e-06
 1.20045825e-06
 1.20045825e-06
 1.20045825e-06
 1.20045825e-06
 1.20045825e-06
 1.20045825e-06
 1.20045825e-06
 8.80718516e-07
 8.80718516e-07
 8.80718516e-07
 8.80718516e-07
 8.80718516e-07
 8.80718516e-07
 8.80718516e-07
 8.80718516e-07
 8.80718516e-07
 8.80718516e-07
 8.80718516e-07
 2.08250326e-07
 2.08250326e-07
 2.08250326e-07
 1.43091412e-07
 1.43091412e-07
 1.43091412e-07
 1.43091412e-07
 1.43091412e-07
 1.43091412e-07
 1.33772875e-07
 1.33772875e-07
 5.29647469e-08
 5.29647469e-08
 5.45850511e-08
 5.45850511e-08
 5.45850511e-08
 5.45850511e-08
)
)
1
(
101
(
 3.15539879e-12
 3.15539879e-12
 3.15539879e-12
 3.15539879e-12
 3.15539879e-12
 3.15539879e-12
 3.15539879e-12
 3.15539879e-12
 3.15539879e-12
 3.15539879e-12
 3.15539879e-12
 3.15539879e-12
 3.15539879e-12
 3.15539879e-12
 7.47781474e-12
 7.47781474e-12
 7.47781474e-12
 7.47781474e-12
 7.47781474e-12
 7.47781474e-12
 7.47781474e-12
 7.47781474e-12
 7.47781474e-12
 7.47781474e-12
 7.47781474e-12
 7.47781474e-12
 7.47781474e-12
 7.47781474e-12
 7.47781474e-12
 7.47781474e-12
 7.47781474e-12
 7.47781474e-12
 7.47781474e-12
 7.47781474e-12
 7.47781474e-12
 7.47781474e-12
 7.47781474e-12
 7.47781474e-12
 7.47781474e-12
 7.47781474e-12
 7.47781474e-12
 7.47781474e-12
 5.70651069e-07
 5.70651069e-07
 5.70651069e-07
 5.70651069e-07
 5.70651069e-07
 5.70651069e-07
 5.70651069e-07
 5.70651069e-07
 5.70651069e-07
 5.70651069e-07
 5.21573724e-07
 5.21573724e-07
 5.21573724e-07
 5.21573724e-07
 5.21573724e-07
 5.21573724e-07
 5.21573724e-07
 5.21573724e-07
 1.20045825e-06
 1.20045825e-06
 1.20045825e-06
 1.20045825e-06
 1.20045825e-06
 1.20045825e-06
 1.20045825e-06
 1.20045825e-06
 1.20045825e-06
 1.20045825e-06
 1.20045825e-06
 1.20045825e-06
 1.20045825e-06
 1.20045825e-06
 1.20045825e-06
 8.80718516e-07
 8.80718516e-07
 8.80718516e-07
 8.80718516e-07
 8.80718516e-07
 8.80718516e-07
 8.80718516e-07
 8.80718516e-07
 8.80718516e-07
 8.80718516e-07
 2.08250326e-07
 2.08250326e-07
 2.08250326e-07
 2.08250326e-07
 1.43091412e-07
 1.43091412e-07
 1.43091412e-07
 1.43091412e-07
 1.43091412e-07
 1.33772875e-07
 1.33772875e-07
 5.29647469e-08
 5.29647469e-08
 5.45850511e-08
 5.45850511e-08
 5.45850511e-08
)
)
1
(
101
(
 3.04284150e-12
 3.04284150e-12
 3.04284150e-12
 3.04284150e-12
 3.04284150e-12
 3.04284150e-12
 3.04284150e-12
 3.04284150e-12
 3.04284150e-12
 7.47781474e-12
 7.47781474e-12
 7.47781474e-12
 7.47781474e-12
 7.47781474e-12
 7.47781474e-12
 7.47781474e-12
 7.47781474e-12
 7.47781474e-12
 7.47781474e-12
 7.47781474e-12
 7.47781474e-12
 7.47781474e-12
 7.47781474e-12
 7.47781474e-12
 7.47781474e-12
 7.47781474e-12
 7.47781474e-12
 7.47781474e-12
 7.47781474e-12
 7.47781474e-12
 7.47781474e-12
 7.47781474e-12
 7.47781474e-12
 7.47781474e-12
 7.47781474e-12
 7.47781474e-12
 7.47781474e-12
 7.47781474e-12
 7.47781474e-12
 7.47781474e-12
 7.47781474e-12
 7.47781474e-12
 5.70651069e-07
 5.70651069e-07
 5.70651069e-07
 5.70651069e-07
 5.70651069e-07
 5.70651069e-07
 5.70651069e-07
 5.70651069e-07
 5.70651069e-07
 5.70651069e-07
 5.70651069e-07
 5.70651069e-07
 5.21573724e-07
 5.21573724e-07
 5.21573724e-07
 5.21573724e-07
 5.21573724e-07
 5.21573724e-07
 5.21573724e-07
 5.21573724e-07
 1.20045825e-06
 1.20045825e-06
 1.20045825e-06
 1.20045825e-06
 1.20045825e-06
 1.20045825e-06
 1.20045825e-06
 1.20045825e-06
 1.20045825e-06
 1.20045825e-06
 1.20045825e-06
 1.20045825e-06
 1.20045825e-06
 1.20045825e-06
 8.80718516e-07
 8.80718516e-07
 8.80718516e-07
 8.80718516e-07
 8.80718516e-07
 8.80718516e-07
 8.80718516e-07
 8.80718516e-07
 8.80718516e-07
 8.80718516e-07
 2.08250326e-07
 2.08250326e-07
 2.08250326e-07
 2.08250326e-07
 1.32659153e-07
 1.43091412e-07
 1.43091412e-07
 1.43091412e-07
 1.43091412e-07
 1.33772875e-07
 1.33772875e-07
 5.29647469e-08
 5.29647469e-08
 5.45850511e-08
 5.45850511e-08
)
)
1
(
101
(
 4.08125718e-12
 4.08125718e-12
 4.08125718e-12
 4.08125718e-12
 4.08125718e-12
 4.08125718e-12
 7.47781474e-12
 7.47781474e-12
 7.47781474e-12
 7.47781474e-12
 7.47781474e-12
 7.47781474e-12
 7.47781474e-12
 7.47781474e-12
 7.47781474e-12
 7.47781474e-12
 7.47781474e-12
 7.47781474e-12
 7.47781474e-12
 7.47781474e-12
 7.47781474e-12
 7.47781474e-12
 7.47781474e-12
 7.47781474e-12
 7.47781474e-12
 7.47781474e-12
 7.47781474e-12
 7.47781474e-12
 7.47781474e-12
 7.47781474e-12
 7.47781474e-12
 7.47781474e-12
 7.47781474e-12
 7.47781474e-12
 7.47781474e-12
 7.47781474e-12
 7.47781474e-12
 7.47781474e-12
 7.47781474e-12
 7.47781474e-12
 7.47781474e-12
 7.47781474e-12
 5.70651069e-07
 5.70651069e-07
 5.70651069e-07
 5.70651069e-07
 5.70651069e-07
 5.70651069e-07
 5.70651069e-07
 5.70651069e-07
 5.70651069e-07
 5.70651069e-07
 5.70651069e-07
 5.70651069e-07
 5.70651069e-07
 5.21573724e-07
 5.21573724e-07
 5.21573724e-07
 5.21573724e-07
 5.21573724e-07
 5.21573724e-07
 5.21573724e-07
 5.21573724e-07
 1.20045825e-06
 1.20045825e-06
 1.20045825e-06
 1.20045825e-06
 1.20045825e-06
 1.20045825e-06
 1.20045825e-06
 1.20045825e-06
 1.20045825e-06
 1.20045825e-06
 1.20045825e-06
 1.20045825e-06
 1.20045825e-06
 1.20045825e-06
 8.80718516e-07
 8.80718516e-07
 8.80718516e-07
 8.80718516e-07
 8.80718516e-07
 8.80718516e-07
 8.80718516e-07
 8.80718516e-07
 8.80718516e-07
 8.80718516e-07
 2.08250326e-07
 2.08250326e-07
 2.08250326e-07
 2.08250326e-07
 1.32659153e-07
 1.32659153e-07
 7.98892768e-08
 7.98892768e-08
 7.98892768e-08
 1.33772875e-07
 1.33772875e-07
 5.29647469e-08
 5.29647469e-08
 5.45850511e-08
)
)
1
(
101
(
 5.95890892e-12
 5.95890892e-12
 5.95890892e-12
 7.47781474e-12
 7.47781474e-12
 7.47781474e-12
 7.47781474e-12
 7.47781474e-12
 7.47781474e-12
 7.47781474e-12
 7.47781474e-12
 7.47781474e-12
 7.47781474e-12
 7.47781474e-12
 7.47781474e-12
 7.47781474e-12
 7.47781474e-12
 7.47781474e-12
 7.47781474e-12
 7.47781474e-12
 7.47781474e-12
 7.47781474e-12
 7.47781474e-12
 7.47781474e-12
 7.47781474e-12
 7.47781474e-12
 7.47781474e-12
 7.47781474e-12
 7.47781474e-12
 7.47781474e-12
 7.47781474e-12
 7.47781474e-12
 7.47781474e-12
 7.47781474e-12
 7.47781474e-12
 7.47781474e-12
 7.47781474e-12
 7.47781474e-12
 7.47781474e-12
 7.47781474e-12
 7.47781474e-12
 3.86622840e-07
 5.70651069e-07
 5.70651069e-07
 5.70651069e-07
 5.70651069e-07
 5.70651069e-07
 5.70651069e-07
 5.70651069e-07
 5.70651069e-07
 5.70651069e-07
 5.70651069e-07
 5.70651069e-07
 5.70651069e-07
 5.70651069e-07
 5.70651069e-07
 5.21573724e-07
 5.21573724e-07
 5.21573724e-07
 5.21573724e-07
 5.21573724e-07
 5.21573724e-07
 5.21573724e-07
 5.21573724e-07
 5.21573724e-07
 1.20045825e-06
 1.20045825e-06
 1.20045825e-06
 1.20045825e-06
 1.20045825e-06
 1.20045825e-06
 1.20045825e-06
 1.20045825e-06
 1.20045825e-06
 1.20045825e-06
 1.20045825e-06
 1.20045825e-06
 1.20045825e-06
 8.80718516e-07
 8.80718516e-07
 8.80718516e-07
 8.80718516e-07
 8.80718516e-07
 8.80718516e-07
 8.80718516e-07
 8.80718516e-07
 8.80718516e-07
 8.80718516e-07
 2.08250326e-07
 2.08250326e-07
 2.08250326e-07
 2.08250326e-07
 1.32659153e-07
 1.32659153e-07
 7.98892768e-08
 7.98892768e-08
 7.98892768e-08
 7.98892768e-08
 1.33772875e-07
 5.29647469e-08
 5.29647469e-08
)
)
1
(
101
(
 1.97746438e-12
 1.97746438e-12
 7.47781474e-12
 7.47781474e-12
 7.47781474e-12
 7.47781474e-12
 7.47781474e-12
 7.47781474e-12
 7.47781474e-12
 7.47781474e-12
 7.47781474e-12
 7.47781474e-12
 7.47781474e-12
 7.47781474e-12
 7.47781474e-12
 7.47781474e-12
 7.47781474e-12
 7.47781474e-12
 7.47781474e-12
 7.47781474e-12
 7.47781474e-12
 7.47781474e-12
 7.47781474e-12
 7.47781474e-12
 7.47781474e-12
 7.47781474e-12
 7.47781474e-12
 7.47781474e-12
 7.47781474e-12
 7.47781474e-12
 7.47781474e-12
 7.47781474e-12
 7.47781474e-12
 7.47781474e-12
 7.47781474e-12
 7.47781474e-12
 7.47781474e-12
 7.47781474e-12
 7.47781474e-12
 7.47781474e-12
 7.47781474e-12
 3.86622840e-07
 3.86622840e-07
 5.70651069e-07
 5.70651069e-07
 5.70651069e-07
 5.70651069e-07
 5.70651069e-07
 5.70651069e-07
 5.70651069e-07
 5.70651069e-07
 5.70651069e-07
 5.70651069e-07
 5.70651069e-07
 5.70651069e-07
 5.70651069e-07
 5.70651069e-07
 5.21573724e-07
 5.21573724e-07
 5.21573724e-07
 5.21573724e-07
 5.21573724e-07
 5.21573724e-07
 5.21573724e-07
 5.21573724e-07
 5.21573724e-07
 1.20045825e-06
 1.20045825e-06
 1.20045825e-06
 1.20045825e-06
 1.20045825e-06
 1.20045825e-06
 1.20045825e-06
 1.20045825e-06
 1.20045825e-06
 1.20045825e-06
 1.20045825e-06
 1.20045825e-06
 1.20045825e-06
 1.20045825e-06
 8.80718516e-07
 8.80718516e-07
 8.80718516e-07
 8.80718516e-07
 8.80718516e-07
 8.80718516e-07
 8.80718516e-07
 8.80718516e-07
 1.61111285e-07
 2.08250326e-07
 2.08250326e-07
 2.08250326e-07
 9.63905492e-09
 9.63905492e-09
 9.63905492e-09
 7.98892768e-08
 7.98892768e-08
 7.98892768e-08
 7.98892768e-08
 7.98892768e-08
 5.29647469e-08
)
)
1
(
101
(
 9.90166172e-20
 7.47781474e-12
 7.47781474e-12
 7.47781474e-12
 7.47781474e-12
 7.47781474e-12
 7.47781474e-12
 7.47781474e-12
 7.47781474e-12
 7.47781474e-12
 7.47781474e-12
 7.47781474e-12
 7.47781474e-12
 7.47781474e-12
 7.47781474e-12
 7.47781474e-12
 7.47781474e-12
 7.47781474e-12
 7.47781474e-12
 7.47781474e-12
 7.47781474e-12
 7.47781474e-12
 7.47781474e-12
 7.47781474e-12
 7.47781474e-12
 7.47781474e-12
 7.47781474e-12
 7.47781474e-12
 7.47781474e-12
 7.47781474e-12
 7.47781474e-12
 7.47781474e-12
 7.47781474e-12
 7.47781474e-12
 7.47781474e-12
 7.47781474e-12
 7.47781474e-12
 7.47781474e-12
 7.47781474e-12
 7.47781474e-12
 3.86622840e-07
 3.86622840e-07
 3.86622840e-07
 3.86622840e-07
 5.70651069e-07
 5.70651069e-07
 5.70651069e-07
 5.70651069e-07
 5.70651069e-07
 5.70651069e-07
 5.70651069e-07
 5.70651069e-07
 5.70651069e-07
 5.70651069e-07
 5.70651069e-07
 5.70651069e-07
 5.70651069e-07
 5.70651069e-07
 5.21573724e-07
 5.21573724e-07
 5.21573724e-07
 5.21573724e-07
 5.21573724e-07
 5.21573724e-07
 5.21573724e-07
 5.21573724e-07
 5.21573724e-07
 5.21573724e-07
 1.20045825e-06
 1.20045825e-06
 1.20045825e-06
 1.20045825e-06
 1.20045825e-06
 1.20045825e-06
 1.20045825e-06
 1.20045825e-06
 1.20045825e-06
 1.20045825e-06
 1.20045825e-06
 1.20045825e-06
 1.20045825e-06
 3.71417891e-07
 8.80718516e-07
 8.80718516e-07
 8.80718516e-07
 8.80718516e-07
 8.80718516e-07
 8.80718516e-07
 8.80718516e-07
 1.61111285e-07
 1.61111285e-07
 7.22449042e-08
 7.22449042e-08
 9.63905492e-09
 9.63905492e-09
 9.63905492e-09
 9.63905492e-09
 7.98892768e-08
 7.98892768e-08
 7.98892768e-08
 7.98892768e-08
)
)
1
(
101
(
 9.90166172e-20
 1.01191585e-11
 1.01191585e-11
 1.01191585e-11
 1.01191585e-11
 1.01191585e-11
 1.01191585e-11
 1.01191585e-11
 1.01191585e-11
 1.01191585e-11
 1.01191585e-11
 1.01191585e-11
 1.01191585e-11
 1.01191585e-11
 1.01191585e-11
 1.01191585e-11
 1.01191585e-11
 1.01191585e-11
 1.01191585e-11
 1.01191585e-11
 1.01191585e-11
 1.01191585e-11
 1.01191585e-11
 1.01191585e-11
 1.01191585e-11
 1.01191585e-11
 1.01191585e-11
 1.01191585e-11
 1.01191585e-11
 1.01191585e-11
 1.01191585e-11
 1.01191585e-11
 1.01191585e-11
 1.01191585e-11
 1.01191585e-11
 1.01191585e-11
 1.01191585e-11
 1.01191585e-11
 1.01191585e-11
 1.01191585e-11
 3.86622840e-07
 3.86622840e-07
 3.86622840e-07
 3.86622840e-07
 3.86622840e-07
 5.70651069e-07
 5.70651069e-07
 5.70651069e-07
 5.70651069e-07
 5.70651069e-07
 5.70651069e-07
 5.70651069e-07
 5.70651069e-07
 5.70651069e-07
 5.70651069e-07
 5.70651069e-07
 5.70651069e-07
 5.70651069e-07
 5.70651069e-07
 5.21573724e-07
 5.21573724e-07
 5.21573724e-07
 5.21573724e-07
 5.21573724e-07
 5.21573724e-07
 5.21573724e-07
 5.21573724e-07
 5.21573724e-07
 5.21573724e-07
 1.20045825e-06
 1.20045825e-06
 1.20045825e-06
 1.20045825e-06
 1.20045825e-06
 1.20045825e-06
 1.20045825e-06
 1.20045825e-06
 1.20045825e-06
 1.20045825e-06
 1.20045825e-06
 1.20045825e-06
 1.20045825e-06
 3.71417891e-07
 3.71417891e-07
 8.80718516e-07
 8.80718516e-07
 8.80718516e-07
 8.80718516e-07
 8.80718516e-07
 1.61111285e-07
 1.61111285e-07
 1.61111285e-07
 7.22449042e-08
 7.22449042e-08
 9.63905492e-09
 9.63905492e-09
 9.63905492e-09
 9.63905492e-09
 9.63905492e-09
 7.98892768e-08
 7.98892768e-08
)
)
1
(
101
(
 1.50351011e-11
 1.50351011e-11
 1.50351011e-11
 1.50351011e-11
 1.50351011e-11
 1.50351011e-11
 1.50351011e-11
 1.50351011e-11
 1.50351011e-11
 1.50351011e-11
 1.50351011e-11
 1.50351011e-11
 1.50351011e-11
 1.50351011e-11
 1.50351011e-11
 1.50351011e-11
 1.50351011e-11
 1.50351011e-11
 1.50351011e-11
 1.50351011e-11
 1.50351011e-11
 1.50351011e-11
 1.50351011e-11
 1.50351011e-11
 1.50351011e-11
 1.50351011e-11
 1.50351011e-11
 1.50351011e-11
 1.50351011e-11
 1.50351011e-11
 1.50351011e-11
 1.50351011e-11
 1.50351011e-11
 1.50351011e-11
 1.50351011e-11
 1.50351011e-11
 1.50351011e-11
 1.50351011e-11
 1.50351011e-11
 1.50351011e-11
 3.86622840e-07
 3.86622840e-07
 3.86622840e-07
 3.86622840e-07
 3.86622840e-07
 3.86622840e-07
 5.70651069e-07
 5.70651069e-07
 5.70651069e-07
 5.70651069e-07
 5.70651069e-07
 5.70651069e-07
 5.70651069e-07
 5.70651069e-07
 5.70651069e-07
 5.70651069e-07
 5.70651069e-07
 5.70651069e-07
 5.70651069e-07
 5.70651069e-07
 5.70651069e-07
 5.21573724e-07
 5.21573724e-07
 5.21573724e-07
 5.21573724e-07
 5.21573724e-07
 5.21573724e-07
 5.21573724e-07
 5.21573724e-07
 5.21573724e-07
 5.21573724e-07
 1.20045825e-06
 1.20045825e-06
 1.20045825e-06
 1.20045825e-06
 1.20045825e-06
 1.20045825e-06
 1.20045825e-06
 1.20045825e-06
 1.20045825e-06
 1.20045825e-06
 1.20045825e-06
 1.20045825e-06
 3.71417891e-07
 3.71417891e-07
 3.71417891e-07
 8.80718516e-07
 8.80718516e-07
 8.80718516e-07
 8.80718516e-07
 1.61111285e-07
 1.61111285e-07
 1.61111285e-07
 7.22449042e-08
 7.22449042e-08
 9.63905492e-09
 9.63905492e-09
 9.63905492e-09
 9.63905492e-09
 9.63905492e-09
 9.63905492e-09
)
)
1
(
101
(
 2.05969547e-11
 2.05969547e-11
 2.05969547e-11
 2.05969547e-11
 2.05969547e-11
 2.05969547e-11
 2.05969547e-11
 2.05969547e-11
 2.05969547e-11
 2.05969547e-11
 2.05969547e-11
 2.05969547e-11
 2.05969547e-11
 2.05969547e-11
 2.05969547e-11
 2.05969547e-11
 2.05969547e-11
 2.05969547e-11
 2.05969547e-11
 2.05969547e-11
 2.05969547e-11
 2.05969547e-11
 2.05969547e-11
 2.05969547e-11
 2.05969547e-11
 2.05969547e-11
 2.05969547e-11
 2.05969547e-11
 2.05969547e-11
 2.05969547e-11
 2.05969547e-11
 2.05969547e-11
 2.05969547e-11
 2.05969547e-11
 2.05969547e-11
 2.05969547e-11
 2.05969547e-11
 2.05969547e-11
 2.05969547e-11
 3.86622840e-07
 3.86622840e-07
 3.86622840e-07
 3.86622840e-07
 3.86622840e-07
 3.86622840e-07
 3.86622840e-07
 3.86622840e-07
 3.86622840e-07
 5.70651069e-07
 5.70651069e-07
 5.70651069e-07
 5.70651069e-07
 5.70651069e-07
 5.70651069e-07
 5.70651069e-07
 5.70651069e-07
 5.70651069e-07
 5.70651069e-07
 5.70651069e-07
 5.70651069e-07
 5.70651069e-07
 5.70651069e-07
 5.21573724e-07
 5.21573724e-07
 5.21573724e-07
 5.21573724e-07
 5.21573724e-07
 5.21573724e-07
 5.21573724e-07
 5.21573724e-07
 5.21573724e-07
 5.21573724e-07
 1.20045825e-06
 1.20045825e-06
 1.20045825e-06
 1.20045825e-06
 1.20045825e-06
 1.20045825e-06
 1.20045825e-06
 1.20045825e-06
 1.20045825e-06
 1.20045825e-06
 1.20045825e-06
 1.20045825e-06
 3.71417891e-07
 3.71417891e-07
 3.71417891e-07
 3.71417891e-07
 2.18518145e-07
 2.18518145e-07
 2.18518145e-07
 1.61111285e-07
 1.61111285e-07
 1.61111285e-07
 7.22449042e-08
 7.22449042e-08
 9.63905492e-09
 9.63905492e-09
 9.63905492e-09