/*--------------------------------*- C++ -*----------------------------------*\
| =========                 |                                                 |
| \\      /  F ield        | OpenFOAM: The Open Source CFD Toolbox           |
|  \\    /   O peration    | Version:  7                                     |
|   \\  /    A nd          | Web:      http://www.OpenFOAM.com               |
|    \\/     M anipulation |                                                 |
\*---------------------------------------------------------------------------*/

FoamFile
{
    version     2.0;
    format      ascii;
    class       dictionary;
    object      Y_CH2O_table;
}

Y_CH2O_table
2
(
101
(
1
(
101
(
 4.62039716e-14
 4.62039716e-14
 4.62039716e-14
 4.62039716e-14
 4.62039716e-14
 4.62039716e-14
 4.62039716e-14
 4.62039716e-14
 4.62039716e-14
 4.62039716e-14
 4.62039716e-14
 4.62039716e-14
 4.62039716e-14
 4.62039716e-14
 4.62039716e-14
 4.62039716e-14
 4.62039716e-14
 4.62039716e-14
 4.62039716e-14
 4.62039716e-14
 4.62039716e-14
 4.62039716e-14
 4.62039716e-14
 4.62039716e-14
 4.62039716e-14
 4.62039716e-14
 4.62039716e-14
 4.62039716e-14
 4.62039716e-14
 4.62039716e-14
 4.62039716e-14
 4.62039716e-14
 4.62039716e-14
 4.62039716e-14
 4.62039716e-14
 4.62039716e-14
 4.62039716e-14
 4.62039716e-14
 4.62039716e-14
 4.62039716e-14
 4.62039716e-14
 4.62039716e-14
 4.62039716e-14
 4.62039716e-14
 4.62039716e-14
 8.61961587e-06
 8.61961587e-06
 3.09880623e-05
 3.09880623e-05
 3.09880623e-05
 3.09880623e-05
 3.09880623e-05
 3.09880623e-05
 3.09880623e-05
 3.09880623e-05
 3.09880623e-05
 3.09880623e-05
 3.09880623e-05
 3.09880623e-05
 3.09880623e-05
 3.09880623e-05
 3.09880623e-05
 3.09880623e-05
 2.55742443e-05
 2.55742443e-05
 2.55742443e-05
 2.55742443e-05
 2.55742443e-05
 2.55742443e-05
 2.55742443e-05
 2.55742443e-05
 2.55742443e-05
 2.55742443e-05
 2.55742443e-05
 2.55742443e-05
 2.72048930e-06
 2.72048930e-06
 2.72048930e-06
 2.72048930e-06
 2.72048930e-06
 2.72048930e-06
 2.72048930e-06
 2.63613634e-06
 2.63613634e-06
 2.63613634e-06
 2.63613634e-06
 2.63613634e-06
 2.63613634e-06
 1.61249465e-06
 1.61249465e-06
 1.61249465e-06
 1.61249465e-06
 1.61249465e-06
 1.61249465e-06
 1.61249465e-06
 2.67083786e-07
 2.67083786e-07
 2.67083786e-07
 2.67083786e-07
 2.67083786e-07
 2.18935507e-09
)
)
1
(
101
(
 4.36382654e-12
 4.36382654e-12
 4.36382654e-12
 4.36382654e-12
 4.36382654e-12
 4.36382654e-12
 4.36382654e-12
 4.36382654e-12
 4.36382654e-12
 4.36382654e-12
 4.36382654e-12
 4.36382654e-12
 4.36382654e-12
 4.36382654e-12
 4.36382654e-12
 4.36382654e-12
 4.36382654e-12
 4.36382654e-12
 4.36382654e-12
 4.36382654e-12
 4.36382654e-12
 4.36382654e-12
 4.36382654e-12
 4.36382654e-12
 4.36382654e-12
 4.36382654e-12
 4.36382654e-12
 4.36382654e-12
 4.36382654e-12
 4.36382654e-12
 4.36382654e-12
 4.36382654e-12
 4.36382654e-12
 4.36382654e-12
 4.36382654e-12
 4.36382654e-12
 4.36382654e-12
 4.36382654e-12
 4.36382654e-12
 4.36382654e-12
 4.36382654e-12
 4.36382654e-12
 4.36382654e-12
 4.36382654e-12
 4.36382654e-12
 8.61961587e-06
 8.61961587e-06
 8.61961587e-06
 3.09880623e-05
 3.09880623e-05
 3.09880623e-05
 3.09880623e-05
 3.09880623e-05
 3.09880623e-05
 3.09880623e-05
 3.09880623e-05
 3.09880623e-05
 3.09880623e-05
 3.09880623e-05
 3.09880623e-05
 3.09880623e-05
 3.09880623e-05
 3.09880623e-05
 3.09880623e-05
 3.09880623e-05
 2.55742443e-05
 2.55742443e-05
 2.55742443e-05
 2.55742443e-05
 2.55742443e-05
 2.55742443e-05
 2.55742443e-05
 2.55742443e-05
 2.55742443e-05
 2.55742443e-05
 2.55742443e-05
 2.55742443e-05
 2.72048930e-06
 2.72048930e-06
 2.72048930e-06
 2.72048930e-06
 2.72048930e-06
 2.72048930e-06
 2.63613634e-06
 2.63613634e-06
 2.63613634e-06
 2.63613634e-06
 2.63613634e-06
 2.63613634e-06
 2.63613634e-06
 1.61249465e-06
 1.61249465e-06
 1.61249465e-06
 1.61249465e-06
 1.61249465e-06
 1.61249465e-06
 7.98717638e-07
 2.67083786e-07
 2.67083786e-07
 2.67083786e-07
 6.94471505e-08
)
)
1
(
101
(
 1.29401013e-11
 1.29401013e-11
 1.29401013e-11
 1.29401013e-11
 1.29401013e-11
 1.29401013e-11
 1.29401013e-11
 1.29401013e-11
 1.29401013e-11
 1.29401013e-11
 1.29401013e-11
 1.29401013e-11
 1.29401013e-11
 1.29401013e-11
 1.29401013e-11
 1.29401013e-11
 1.29401013e-11
 1.29401013e-11
 1.29401013e-11
 1.29401013e-11
 1.29401013e-11
 1.29401013e-11
 1.29401013e-11
 1.29401013e-11
 1.29401013e-11
 1.29401013e-11
 1.29401013e-11
 1.29401013e-11
 1.29401013e-11
 1.29401013e-11
 1.29401013e-11
 1.29401013e-11
 1.29401013e-11
 1.29401013e-11
 1.29401013e-11
 1.29401013e-11
 1.29401013e-11
 1.29401013e-11
 1.29401013e-11
 1.29401013e-11
 1.29401013e-11
 1.29401013e-11
 1.29401013e-11
 1.29401013e-11
 8.61961587e-06
 8.61961587e-06
 8.61961587e-06
 8.61961587e-06
 8.61961587e-06
 8.61961587e-06
 3.09880623e-05
 3.09880623e-05
 3.09880623e-05
 3.09880623e-05
 3.09880623e-05
 3.09880623e-05
 3.09880623e-05
 3.09880623e-05
 3.09880623e-05
 3.09880623e-05
 3.09880623e-05
 3.09880623e-05
 3.09880623e-05
 3.09880623e-05
 3.09880623e-05
 3.09880623e-05
 2.55742443e-05
 2.55742443e-05
 2.55742443e-05
 2.55742443e-05
 2.55742443e-05
 2.55742443e-05
 2.55742443e-05
 2.55742443e-05
 2.55742443e-05
 2.55742443e-05
 2.55742443e-05
 2.55742443e-05
 2.72048930e-06
 2.72048930e-06
 2.72048930e-06
 2.72048930e-06
 2.72048930e-06
 2.72048930e-06
 2.72048930e-06
 2.63613634e-06
 2.63613634e-06
 2.63613634e-06
 2.63613634e-06
 2.63613634e-06
 2.63613634e-06
 1.61249465e-06
 1.61249465e-06
 1.61249465e-06
 1.61249465e-06
 1.61249465e-06
 1.61249465e-06
 7.98717638e-07
 7.98717638e-07
 2.88094039e-07
 2.88094039e-07
)
)
1
(
101
(
 1.65986989e-11
 1.65986989e-11
 1.65986989e-11
 1.65986989e-11
 1.65986989e-11
 1.65986989e-11
 1.65986989e-11
 1.65986989e-11
 1.65986989e-11
 1.65986989e-11
 1.65986989e-11
 1.65986989e-11
 1.65986989e-11
 1.65986989e-11
 1.65986989e-11
 1.65986989e-11
 1.65986989e-11
 1.65986989e-11
 1.65986989e-11
 1.65986989e-11
 1.65986989e-11
 1.65986989e-11
 1.65986989e-11
 1.65986989e-11
 1.65986989e-11
 1.65986989e-11
 1.65986989e-11
 1.65986989e-11
 1.65986989e-11
 1.65986989e-11
 1.65986989e-11
 1.65986989e-11
 1.65986989e-11
 1.65986989e-11
 1.65986989e-11
 1.65986989e-11
 1.65986989e-11
 1.65986989e-11
 1.65986989e-11
 1.65986989e-11
 1.65986989e-11
 1.65986989e-11
 1.65986989e-11
 1.65986989e-11
 8.07153183e-06
 8.61961587e-06
 8.61961587e-06
 8.61961587e-06
 8.61961587e-06
 8.61961587e-06
 8.61961587e-06
 3.09880623e-05
 3.09880623e-05
 3.09880623e-05
 3.09880623e-05
 3.09880623e-05
 3.09880623e-05
 3.09880623e-05
 3.09880623e-05
 3.09880623e-05
 3.09880623e-05
 3.09880623e-05
 3.09880623e-05
 3.09880623e-05
 3.09880623e-05
 3.09880623e-05
 3.09880623e-05
 2.55742443e-05
 2.55742443e-05
 2.55742443e-05
 2.55742443e-05
 2.55742443e-05
 2.55742443e-05
 2.55742443e-05
 2.55742443e-05
 2.55742443e-05
 2.55742443e-05
 2.55742443e-05
 2.55742443e-05
 4.29343868e-06
 2.72048930e-06
 2.72048930e-06
 2.72048930e-06
 2.72048930e-06
 2.72048930e-06
 2.72048930e-06
 2.63613634e-06
 2.63613634e-06
 2.63613634e-06
 2.63613634e-06
 2.63613634e-06
 2.63613634e-06
 2.63613634e-06
 1.61249465e-06
 1.61249465e-06
 1.61249465e-06
 1.61249465e-06
 1.61249465e-06
 7.98717638e-07
 6.33850349e-08
 6.33850349e-08
)
)
1
(
101
(
 2.76196483e-11
 2.76196483e-11
 2.76196483e-11
 2.76196483e-11
 2.76196483e-11
 2.76196483e-11
 2.76196483e-11
 2.76196483e-11
 2.76196483e-11
 2.76196483e-11
 2.76196483e-11
 2.76196483e-11
 2.76196483e-11
 2.76196483e-11
 2.76196483e-11
 2.76196483e-11
 2.76196483e-11
 2.76196483e-11
 2.76196483e-11
 2.76196483e-11
 2.76196483e-11
 2.76196483e-11
 2.76196483e-11
 2.76196483e-11
 2.76196483e-11
 2.76196483e-11
 2.76196483e-11
 2.76196483e-11
 2.76196483e-11
 2.76196483e-11
 2.76196483e-11
 2.76196483e-11
 2.76196483e-11
 2.76196483e-11
 2.76196483e-11
 2.76196483e-11
 2.76196483e-11
 2.76196483e-11
 2.76196483e-11
 2.76196483e-11
 2.76196483e-11
 2.76196483e-11
 2.76196483e-11
 2.76196483e-11
 8.07153183e-06
 8.07153183e-06
 8.07153183e-06
 8.61961587e-06
 8.61961587e-06
 8.61961587e-06
 8.61961587e-06
 8.61961587e-06
 8.61961587e-06
 3.09880623e-05
 3.09880623e-05
 3.09880623e-05
 3.09880623e-05
 3.09880623e-05
 3.09880623e-05
 3.09880623e-05
 3.09880623e-05
 3.09880623e-05
 3.09880623e-05
 3.09880623e-05
 3.09880623e-05
 3.09880623e-05
 3.09880623e-05
 3.09880623e-05
 2.55742443e-05
 2.55742443e-05
 2.55742443e-05
 2.55742443e-05
 2.55742443e-05
 2.55742443e-05
 2.55742443e-05
 2.55742443e-05
 2.55742443e-05
 2.55742443e-05
 2.55742443e-05
 2.55742443e-05
 4.29343868e-06
 2.72048930e-06
 2.72048930e-06
 2.72048930e-06
 2.72048930e-06
 2.72048930e-06
 2.72048930e-06
 2.72048930e-06
 2.63613634e-06
 2.63613634e-06
 2.63613634e-06
 2.63613634e-06
 2.63613634e-06
 2.63613634e-06
 1.58503035e-06
 1.61249465e-06
 1.61249465e-06
 1.61249465e-06
 4.07973685e-07
 4.07973685e-07
 6.33850349e-08
)
)
1
(
101
(
 2.95372581e-11
 2.95372581e-11
 2.95372581e-11
 2.95372581e-11
 2.95372581e-11
 2.95372581e-11
 2.95372581e-11
 2.95372581e-11
 2.95372581e-11
 2.95372581e-11
 2.95372581e-11
 2.95372581e-11
 2.95372581e-11
 2.95372581e-11
 2.95372581e-11
 2.95372581e-11
 2.95372581e-11
 2.95372581e-11
 2.95372581e-11
 2.95372581e-11
 2.95372581e-11
 2.95372581e-11
 2.95372581e-11
 2.95372581e-11
 2.95372581e-11
 2.95372581e-11
 2.95372581e-11
 2.95372581e-11
 2.95372581e-11
 2.95372581e-11
 2.95372581e-11
 2.95372581e-11
 2.95372581e-11
 2.95372581e-11
 2.95372581e-11
 2.95372581e-11
 2.95372581e-11
 2.95372581e-11
 2.95372581e-11
 2.95372581e-11
 2.95372581e-11
 2.95372581e-11
 1.37910628e-10
 8.07153183e-06
 8.07153183e-06
 8.07153183e-06
 8.07153183e-06
 8.07153183e-06
 8.61961587e-06
 8.61961587e-06
 8.61961587e-06
 8.61961587e-06
 8.61961587e-06
 8.61961587e-06
 3.09880623e-05
 3.09880623e-05
 3.09880623e-05
 3.09880623e-05
 3.09880623e-05
 3.09880623e-05
 3.09880623e-05
 3.09880623e-05
 3.09880623e-05
 3.09880623e-05
 3.09880623e-05
 3.09880623e-05
 3.09880623e-05
 3.09880623e-05
 3.09880623e-05
 3.09880623e-05
 2.55742443e-05
 2.55742443e-05
 2.55742443e-05
 2.55742443e-05
 2.55742443e-05
 2.55742443e-05
 2.55742443e-05
 2.55742443e-05
 2.55742443e-05
 2.55742443e-05
 2.55742443e-05
 4.29343868e-06
 4.29343868e-06
 2.72048930e-06
 2.72048930e-06
 2.72048930e-06
 2.72048930e-06
 2.72048930e-06
 2.72048930e-06
 2.63613634e-06
 2.63613634e-06
 2.63613634e-06
 2.63613634e-06
 2.63613634e-06
 2.63613634e-06
 1.58503035e-06
 1.58503035e-06
 8.62989650e-07
 8.62989650e-07
 4.07973685e-07
 4.07973685e-07
)
)
1
(
101
(
 5.35365117e-11
 5.35365117e-11
 5.35365117e-11
 5.35365117e-11
 5.35365117e-11
 5.35365117e-11
 5.35365117e-11
 5.35365117e-11
 5.35365117e-11
 5.35365117e-11
 5.35365117e-11
 5.35365117e-11
 5.35365117e-11
 5.35365117e-11
 5.35365117e-11
 5.35365117e-11
 5.35365117e-11
 5.35365117e-11
 5.35365117e-11
 5.35365117e-11
 5.35365117e-11
 5.35365117e-11
 5.35365117e-11
 5.35365117e-11
 5.35365117e-11
 5.35365117e-11
 5.35365117e-11
 5.35365117e-11
 5.35365117e-11
 5.35365117e-11
 5.35365117e-11
 5.35365117e-11
 5.35365117e-11
 1.37910628e-10
 1.37910628e-10
 1.37910628e-10
 1.37910628e-10
 1.37910628e-10
 1.37910628e-10
 1.37910628e-10
 1.37910628e-10
 1.37910628e-10
 1.37910628e-10
 8.07153183e-06
 8.07153183e-06
 8.07153183e-06
 8.07153183e-06
 8.07153183e-06
 8.07153183e-06
 8.61961587e-06
 8.61961587e-06
 8.61961587e-06
 8.61961587e-06
 8.61961587e-06
 8.61961587e-06
 8.61961587e-06
 3.09880623e-05
 3.09880623e-05
 3.09880623e-05
 3.09880623e-05
 3.09880623e-05
 3.09880623e-05
 3.09880623e-05
 3.09880623e-05
 3.09880623e-05
 3.09880623e-05
 3.09880623e-05
 3.09880623e-05
 3.09880623e-05
 3.09880623e-05
 3.09880623e-05
 2.55742443e-05
 2.55742443e-05
 2.55742443e-05
 2.55742443e-05
 2.55742443e-05
 2.55742443e-05
 2.55742443e-05
 2.55742443e-05
 2.55742443e-05
 2.55742443e-05
 2.55742443e-05
 4.29343868e-06
 4.29343868e-06
 2.72048930e-06
 2.72048930e-06
 2.72048930e-06
 2.72048930e-06
 2.72048930e-06
 2.72048930e-06
 2.72048930e-06
 2.63613634e-06
 2.63613634e-06
 2.63613634e-06
 2.63613634e-06
 2.63613634e-06
 1.58503035e-06
 1.58503035e-06
 8.62989650e-07
 8.62989650e-07
 4.07973685e-07
)
)
1
(
101
(
 5.25747668e-11
 5.25747668e-11
 5.25747668e-11
 5.25747668e-11
 5.25747668e-11
 5.25747668e-11
 5.25747668e-11
 5.25747668e-11
 5.25747668e-11
 5.25747668e-11
 5.25747668e-11
 5.25747668e-11
 5.25747668e-11
 5.25747668e-11
 5.25747668e-11
 5.25747668e-11
 5.25747668e-11
 5.25747668e-11
 5.25747668e-11
 5.25747668e-11
 5.25747668e-11
 5.25747668e-11
 5.25747668e-11
 5.25747668e-11
 5.25747668e-11
 5.25747668e-11
 1.37910628e-10
 1.37910628e-10
 1.37910628e-10
 1.37910628e-10
 1.37910628e-10
 1.37910628e-10
 1.37910628e-10
 1.37910628e-10
 1.37910628e-10
 1.37910628e-10
 1.37910628e-10
 1.37910628e-10
 1.37910628e-10
 1.37910628e-10
 1.37910628e-10
 1.37910628e-10
 1.37910628e-10
 8.07153183e-06
 8.07153183e-06
 8.07153183e-06
 8.07153183e-06
 8.07153183e-06
 8.07153183e-06
 8.07153183e-06
 8.61961587e-06
 8.61961587e-06
 8.61961587e-06
 8.61961587e-06
 8.61961587e-06
 8.61961587e-06
 8.61961587e-06
 3.09880623e-05
 3.09880623e-05
 3.09880623e-05
 3.09880623e-05
 3.09880623e-05
 3.09880623e-05
 3.09880623e-05
 3.09880623e-05
 3.09880623e-05
 3.09880623e-05
 3.09880623e-05
 3.09880623e-05
 3.09880623e-05
 3.09880623e-05
 3.09880623e-05
 2.55742443e-05
 2.55742443e-05
 2.55742443e-05
 2.55742443e-05
 2.55742443e-05
 2.55742443e-05
 2.55742443e-05
 2.55742443e-05
 2.55742443e-05
 2.55742443e-05
 2.55742443e-05
 4.29343868e-06
 4.29343868e-06
 4.29343868e-06
 2.72048930e-06
 2.72048930e-06
 2.72048930e-06
 2.72048930e-06
 2.72048930e-06
 2.72048930e-06
 2.96479658e-06
 2.63613634e-06
 2.63613634e-06
 2.63613634e-06
 9.86768798e-07
 9.86768798e-07
 9.86768798e-07
 8.62989650e-07
 8.62989650e-07
)
)
1
(
101
(
 5.79882709e-11
 5.79882709e-11
 5.79882709e-11
 5.79882709e-11
 5.79882709e-11
 5.79882709e-11
 5.79882709e-11
 5.79882709e-11
 5.79882709e-11
 5.79882709e-11
 5.79882709e-11
 5.79882709e-11
 5.79882709e-11
 5.79882709e-11
 5.79882709e-11
 5.79882709e-11
 5.79882709e-11
 5.79882709e-11
 5.79882709e-11
 1.37910628e-10
 1.37910628e-10
 1.37910628e-10
 1.37910628e-10
 1.37910628e-10
 1.37910628e-10
 1.37910628e-10
 1.37910628e-10
 1.37910628e-10
 1.37910628e-10
 1.37910628e-10
 1.37910628e-10
 1.37910628e-10
 1.37910628e-10
 1.37910628e-10
 1.37910628e-10
 1.37910628e-10
 1.37910628e-10
 1.37910628e-10
 1.37910628e-10
 1.37910628e-10
 1.37910628e-10
 1.37910628e-10
 8.07153183e-06
 8.07153183e-06
 8.07153183e-06
 8.07153183e-06
 8.07153183e-06
 8.07153183e-06
 8.07153183e-06
 8.07153183e-06
 8.07153183e-06
 8.61961587e-06
 8.61961587e-06
 8.61961587e-06
 8.61961587e-06
 8.61961587e-06
 8.61961587e-06
 8.61961587e-06
 8.61961587e-06
 3.09880623e-05
 3.09880623e-05
 3.09880623e-05
 3.09880623e-05
 3.09880623e-05
 3.09880623e-05
 3.09880623e-05
 3.09880623e-05
 3.09880623e-05
 3.09880623e-05
 3.09880623e-05
 3.09880623e-05
 3.09880623e-05
 3.09880623e-05
 2.55742443e-05
 2.55742443e-05
 2.55742443e-05
 2.55742443e-05
 2.55742443e-05
 2.55742443e-05
 2.55742443e-05
 2.55742443e-05
 2.55742443e-05
 2.55742443e-05
 2.55742443e-05
 4.29343868e-06
 4.29343868e-06
 4.29343868e-06
 2.72048930e-06
 2.72048930e-06
 2.72048930e-06
 2.72048930e-06
 2.72048930e-06
 2.72048930e-06
 2.96479658e-06
 2.96479658e-06
 1.01216078e-06
 1.01216078e-06
 9.86768798e-07
 9.86768798e-07
 9.86768798e-07
 9.86768798e-07
)
)
1
(
101
(
 1.12658035e-10
 1.12658035e-10
 1.12658035e-10
 1.12658035e-10
 1.12658035e-10
 1.12658035e-10
 1.12658035e-10
 1.12658035e-10
 1.12658035e-10
 1.12658035e-10
 1.12658035e-10
 1.12658035e-10
 1.12658035e-10
 1.12658035e-10
 1.37910628e-10
 1.37910628e-10
 1.37910628e-10
 1.37910628e-10
 1.37910628e-10
 1.37910628e-10
 1.37910628e-10
 1.37910628e-10
 1.37910628e-10
 1.37910628e-10
 1.37910628e-10
 1.37910628e-10
 1.37910628e-10
 1.37910628e-10
 1.37910628e-10
 1.37910628e-10
 1.37910628e-10
 1.37910628e-10
 1.37910628e-10
 1.37910628e-10
 1.37910628e-10
 1.37910628e-10
 1.37910628e-10
 1.37910628e-10
 1.37910628e-10
 1.37910628e-10
 1.37910628e-10
 1.37910628e-10
 8.07153183e-06
 8.07153183e-06
 8.07153183e-06
 8.07153183e-06
 8.07153183e-06
 8.07153183e-06
 8.07153183e-06
 8.07153183e-06
 8.07153183e-06
 8.07153183e-06
 8.61961587e-06
 8.61961587e-06
 8.61961587e-06
 8.61961587e-06
 8.61961587e-06
 8.61961587e-06
 8.61961587e-06
 8.61961587e-06
 3.09880623e-05
 3.09880623e-05
 3.09880623e-05
 3.09880623e-05
 3.09880623e-05
 3.09880623e-05
 3.09880623e-05
 3.09880623e-05
 3.09880623e-05
 3.09880623e-05
 3.09880623e-05
 3.09880623e-05
 3.09880623e-05
 3.09880623e-05
 3.09880623e-05
 2.55742443e-05
 2.55742443e-05
 2.55742443e-05
 2.55742443e-05
 2.55742443e-05
 2.55742443e-05
 2.55742443e-05
 2.55742443e-05
 2.55742443e-05
 2.55742443e-05
 4.29343868e-06
 4.29343868e-06
 4.29343868e-06
 4.29343868e-06
 2.72048930e-06
 2.72048930e-06
 2.72048930e-06
 2.72048930e-06
 2.72048930e-06
 2.96479658e-06
 2.96479658e-06
 1.01216078e-06
 1.01216078e-06
 9.86768798e-07
 9.86768798e-07
 9.86768798e-07
)
)
1
(
101
(
 9.04978364e-11
 9.04978364e-11
 9.04978364e-11
 9.04978364e-11
 9.04978364e-11
 9.04978364e-11
 9.04978364e-11
 9.04978364e-11
 9.04978364e-11
 1.37910628e-10
 1.37910628e-10
 1.37910628e-10
 1.37910628e-10
 1.37910628e-10
 1.37910628e-10
 1.37910628e-10
 1.37910628e-10
 1.37910628e-10
 1.37910628e-10
 1.37910628e-10
 1.37910628e-10
 1.37910628e-10
 1.37910628e-10
 1.37910628e-10
 1.37910628e-10
 1.37910628e-10
 1.37910628e-10
 1.37910628e-10
 1.37910628e-10
 1.37910628e-10
 1.37910628e-10
 1.37910628e-10
 1.37910628e-10
 1.37910628e-10
 1.37910628e-10
 1.37910628e-10
 1.37910628e-10
 1.37910628e-10
 1.37910628e-10
 1.37910628e-10
 1.37910628e-10
 1.37910628e-10
 8.07153183e-06
 8.07153183e-06
 8.07153183e-06
 8.07153183e-06
 8.07153183e-06
 8.07153183e-06
 8.07153183e-06
 8.07153183e-06
 8.07153183e-06
 8.07153183e-06
 8.07153183e-06
 8.07153183e-06
 8.61961587e-06
 8.61961587e-06
 8.61961587e-06
 8.61961587e-06
 8.61961587e-06
 8.61961587e-06
 8.61961587e-06
 8.61961587e-06
 3.09880623e-05
 3.09880623e-05
 3.09880623e-05
 3.09880623e-05
 3.09880623e-05
 3.09880623e-05
 3.09880623e-05
 3.09880623e-05
 3.09880623e-05
 3.09880623e-05
 3.09880623e-05
 3.09880623e-05
 3.09880623e-05
 3.09880623e-05
 2.55742443e-05
 2.55742443e-05
 2.55742443e-05
 2.55742443e-05
 2.55742443e-05
 2.55742443e-05
 2.55742443e-05
 2.55742443e-05
 2.55742443e-05
 2.55742443e-05
 4.29343868e-06
 4.29343868e-06
 4.29343868e-06
 4.29343868e-06
 2.53036825e-06
 2.72048930e-06
 2.72048930e-06
 2.72048930e-06
 2.72048930e-06
 2.96479658e-06
 2.96479658e-06
 1.01216078e-06
 1.01216078e-06
 9.86768798e-07
 9.86768798e-07
)
)
1
(
101
(
 1.05243626e-10
 1.05243626e-10
 1.05243626e-10
 1.05243626e-10
 1.05243626e-10
 1.05243626e-10
 1.37910628e-10
 1.37910628e-10
 1.37910628e-10
 1.37910628e-10
 1.37910628e-10
 1.37910628e-10
 1.37910628e-10
 1.37910628e-10
 1.37910628e-10
 1.37910628e-10
 1.37910628e-10
 1.37910628e-10
 1.37910628e-10
 1.37910628e-10
 1.37910628e-10
 1.37910628e-10
 1.37910628e-10
 1.37910628e-10
 1.37910628e-10
 1.37910628e-10
 1.37910628e-10
 1.37910628e-10
 1.37910628e-10
 1.37910628e-10
 1.37910628e-10
 1.37910628e-10
 1.37910628e-10
 1.37910628e-10
 1.37910628e-10
 1.37910628e-10
 1.37910628e-10
 1.37910628e-10
 1.37910628e-10
 1.37910628e-10
 1.37910628e-10
 1.37910628e-10
 8.07153183e-06
 8.07153183e-06
 8.07153183e-06
 8.07153183e-06
 8.07153183e-06
 8.07153183e-06
 8.07153183e-06
 8.07153183e-06
 8.07153183e-06
 8.07153183e-06
 8.07153183e-06
 8.07153183e-06
 8.07153183e-06
 8.61961587e-06
 8.61961587e-06
 8.61961587e-06
 8.61961587e-06
 8.61961587e-06
 8.61961587e-06
 8.61961587e-06
 8.61961587e-06
 3.09880623e-05
 3.09880623e-05
 3.09880623e-05
 3.09880623e-05
 3.09880623e-05
 3.09880623e-05
 3.09880623e-05
 3.09880623e-05
 3.09880623e-05
 3.09880623e-05
 3.09880623e-05
 3.09880623e-05
 3.09880623e-05
 3.09880623e-05
 2.55742443e-05
 2.55742443e-05
 2.55742443e-05
 2.55742443e-05
 2.55742443e-05
 2.55742443e-05
 2.55742443e-05
 2.55742443e-05
 2.55742443e-05
 2.55742443e-05
 4.29343868e-06
 4.29343868e-06
 4.29343868e-06
 4.29343868e-06
 2.53036825e-06
 2.53036825e-06
 1.58470468e-06
 1.58470468e-06
 1.58470468e-06
 2.96479658e-06
 2.96479658e-06
 1.01216078e-06
 1.01216078e-06
 9.86768798e-07
)
)
1
(
101
(
 1.33439243e-10
 1.33439243e-10
 1.33439243e-10
 1.37910628e-10
 1.37910628e-10
 1.37910628e-10
 1.37910628e-10
 1.37910628e-10
 1.37910628e-10
 1.37910628e-10
 1.37910628e-10
 1.37910628e-10
 1.37910628e-10
 1.37910628e-10
 1.37910628e-10
 1.37910628e-10
 1.37910628e-10
 1.37910628e-10
 1.37910628e-10
 1.37910628e-10
 1.37910628e-10
 1.37910628e-10
 1.37910628e-10
 1.37910628e-10
 1.37910628e-10
 1.37910628e-10
 1.37910628e-10
 1.37910628e-10
 1.37910628e-10
 1.37910628e-10
 1.37910628e-10
 1.37910628e-10
 1.37910628e-10
 1.37910628e-10
 1.37910628e-10
 1.37910628e-10
 1.37910628e-10
 1.37910628e-10
 1.37910628e-10
 1.37910628e-10
 1.37910628e-10
 4.32902175e-06
 8.07153183e-06
 8.07153183e-06
 8.07153183e-06
 8.07153183e-06
 8.07153183e-06
 8.07153183e-06
 8.07153183e-06
 8.07153183e-06
 8.07153183e-06
 8.07153183e-06
 8.07153183e-06
 8.07153183e-06
 8.07153183e-06
 8.07153183e-06
 8.61961587e-06
 8.61961587e-06
 8.61961587e-06
 8.61961587e-06
 8.61961587e-06
 8.61961587e-06
 8.61961587e-06
 8.61961587e-06
 8.61961587e-06
 3.09880623e-05
 3.09880623e-05
 3.09880623e-05
 3.09880623e-05
 3.09880623e-05
 3.09880623e-05
 3.09880623e-05
 3.09880623e-05
 3.09880623e-05
 3.09880623e-05
 3.09880623e-05
 3.09880623e-05
 3.09880623e-05
 2.55742443e-05
 2.55742443e-05
 2.55742443e-05
 2.55742443e-05
 2.55742443e-05
 2.55742443e-05
 2.55742443e-05
 2.55742443e-05
 2.55742443e-05
 2.55742443e-05
 4.29343868e-06
 4.29343868e-06
 4.29343868e-06
 4.29343868e-06
 2.53036825e-06
 2.53036825e-06
 1.58470468e-06
 1.58470468e-06
 1.58470468e-06
 1.58470468e-06
 2.96479658e-06
 1.01216078e-06
 1.01216078e-06
)
)
1
(
101
(
 4.18077899e-11
 4.18077899e-11
 1.37910628e-10
 1.37910628e-10
 1.37910628e-10
 1.37910628e-10
 1.37910628e-10
 1.37910628e-10
 1.37910628e-10
 1.37910628e-10
 1.37910628e-10
 1.37910628e-10
 1.37910628e-10
 1.37910628e-10
 1.37910628e-10
 1.37910628e-10
 1.37910628e-10
 1.37910628e-10
 1.37910628e-10
 1.37910628e-10
 1.37910628e-10
 1.37910628e-10
 1.37910628e-10
 1.37910628e-10
 1.37910628e-10
 1.37910628e-10
 1.37910628e-10
 1.37910628e-10
 1.37910628e-10
 1.37910628e-10
 1.37910628e-10
 1.37910628e-10
 1.37910628e-10
 1.37910628e-10
 1.37910628e-10
 1.37910628e-10
 1.37910628e-10
 1.37910628e-10
 1.37910628e-10
 1.37910628e-10
 1.37910628e-10
 4.32902175e-06
 4.32902175e-06
 8.07153183e-06
 8.07153183e-06
 8.07153183e-06
 8.07153183e-06
 8.07153183e-06
 8.07153183e-06
 8.07153183e-06
 8.07153183e-06
 8.07153183e-06
 8.07153183e-06
 8.07153183e-06
 8.07153183e-06
 8.07153183e-06
 8.07153183e-06
 8.61961587e-06
 8.61961587e-06
 8.61961587e-06
 8.61961587e-06
 8.61961587e-06
 8.61961587e-06
 8.61961587e-06
 8.61961587e-06
 8.61961587e-06
 3.09880623e-05
 3.09880623e-05
 3.09880623e-05
 3.09880623e-05
 3.09880623e-05
 3.09880623e-05
 3.09880623e-05
 3.09880623e-05
 3.09880623e-05
 3.09880623e-05
 3.09880623e-05
 3.09880623e-05
 3.09880623e-05
 3.09880623e-05
 2.55742443e-05
 2.55742443e-05
 2.55742443e-05
 2.55742443e-05
 2.55742443e-05
 2.55742443e-05
 2.55742443e-05
 2.55742443e-05
 3.09324204e-06
 4.29343868e-06
 4.29343868e-06
 4.29343868e-06
 2.36293546e-07
 2.36293546e-07
 2.36293546e-07
 1.58470468e-06
 1.58470468e-06
 1.58470468e-06
 1.58470468e-06
 1.58470468e-06
 1.01216078e-06
)
)
1
(
101
(
 1.03575629e-15
 1.37910628e-10
 1.37910628e-10
 1.37910628e-10
 1.37910628e-10
 1.37910628e-10
 1.37910628e-10
 1.37910628e-10
 1.37910628e-10
 1.37910628e-10
 1.37910628e-10
 1.37910628e-10
 1.37910628e-10
 1.37910628e-10
 1.37910628e-10
 1.37910628e-10
 1.37910628e-10
 1.37910628e-10
 1.37910628e-10
 1.37910628e-10
 1.37910628e-10
 1.37910628e-10
 1.37910628e-10
 1.37910628e-10
 1.37910628e-10
 1.37910628e-10
 1.37910628e-10
 1.37910628e-10
 1.37910628e-10
 1.37910628e-10
 1.37910628e-10
 1.37910628e-10
 1.37910628e-10
 1.37910628e-10
 1.37910628e-10
 1.37910628e-10
 1.37910628e-10
 1.37910628e-10
 1.37910628e-10
 1.37910628e-10
 4.32902175e-06
 4.32902175e-06
 4.32902175e-06
 4.32902175e-06
 8.07153183e-06
 8.07153183e-06
 8.07153183e-06
 8.07153183e-06
 8.07153183e-06
 8.07153183e-06
 8.07153183e-06
 8.07153183e-06
 8.07153183e-06
 8.07153183e-06
 8.07153183e-06
 8.07153183e-06
 8.07153183e-06
 8.07153183e-06
 8.61961587e-06
 8.61961587e-06
 8.61961587e-06
 8.61961587e-06
 8.61961587e-06
 8.61961587e-06
 8.61961587e-06
 8.61961587e-06
 8.61961587e-06
 8.61961587e-06
 3.09880623e-05
 3.09880623e-05
 3.09880623e-05
 3.09880623e-05
 3.09880623e-05
 3.09880623e-05
 3.09880623e-05
 3.09880623e-05
 3.09880623e-05
 3.09880623e-05
 3.09880623e-05
 3.09880623e-05
 3.09880623e-05
 6.98523476e-06
 2.55742443e-05
 2.55742443e-05
 2.55742443e-05
 2.55742443e-05
 2.55742443e-05
 2.55742443e-05
 2.55742443e-05
 3.09324204e-06
 3.09324204e-06
 1.30833941e-06
 1.30833941e-06
 2.36293546e-07
 2.36293546e-07
 2.36293546e-07
 2.36293546e-07
 1.58470468e-06
 1.58470468e-06
 1.58470468e-06
 1.58470468e-06
)
)
1
(
101
(
 1.03575629e-15
 1.64780875e-10
 1.64780875e-10
 1.64780875e-10
 1.64780875e-10
 1.64780875e-10
 1.64780875e-10
 1.64780875e-10
 1.64780875e-10
 1.64780875e-10
 1.64780875e-10
 1.64780875e-10
 1.64780875e-10
 1.64780875e-10
 1.64780875e-10
 1.64780875e-10
 1.64780875e-10
 1.64780875e-10
 1.64780875e-10
 1.64780875e-10
 1.64780875e-10
 1.64780875e-10
 1.64780875e-10
 1.64780875e-10
 1.64780875e-10
 1.64780875e-10
 1.64780875e-10
 1.64780875e-10
 1.64780875e-10
 1.64780875e-10
 1.64780875e-10
 1.64780875e-10
 1.64780875e-10
 1.64780875e-10
 1.64780875e-10
 1.64780875e-10
 1.64780875e-10
 1.64780875e-10
 1.64780875e-10
 1.64780875e-10
 4.32902175e-06
 4.32902175e-06
 4.32902175e-06
 4.32902175e-06
 4.32902175e-06
 8.07153183e-06
 8.07153183e-06
 8.07153183e-06
 8.07153183e-06
 8.07153183e-06
 8.07153183e-06
 8.07153183e-06
 8.07153183e-06
 8.07153183e-06
 8.07153183e-06
 8.07153183e-06
 8.07153183e-06
 8.07153183e-06
 8.07153183e-06
 8.61961587e-06
 8.61961587e-06
 8.61961587e-06
 8.61961587e-06
 8.61961587e-06
 8.61961587e-06
 8.61961587e-06
 8.61961587e-06
 8.61961587e-06
 8.61961587e-06
 3.09880623e-05
 3.09880623e-05
 3.09880623e-05
 3.09880623e-05
 3.09880623e-05
 3.09880623e-05
 3.09880623e-05
 3.09880623e-05
 3.09880623e-05
 3.09880623e-05
 3.09880623e-05
 3.09880623e-05
 3.09880623e-05
 6.98523476e-06
 6.98523476e-06
 2.55742443e-05
 2.55742443e-05
 2.55742443e-05
 2.55742443e-05
 2.55742443e-05
 3.09324204e-06
 3.09324204e-06
 3.09324204e-06
 1.30833941e-06
 1.30833941e-06
 2.36293546e-07
 2.36293546e-07
 2.36293546e-07
 2.36293546e-07
 2.36293546e-07
 1.58470468e-06
 1.58470468e-06
)
)
1
(
101
(
 2.14364045e-10
 2.14364045e-10
 2.14364045e-10
 2.14364045e-10
 2.14364045e-10
 2.14364045e-10
 2.14364045e-10
 2.14364045e-10
 2.14364045e-10
 2.14364045e-10
 2.14364045e-10
 2.14364045e-10
 2.14364045e-10
 2.14364045e-10
 2.14364045e-10
 2.14364045e-10
 2.14364045e-10
 2.14364045e-10
 2.14364045e-10
 2.14364045e-10
 2.14364045e-10
 2.14364045e-10
 2.14364045e-10
 2.14364045e-10
 2.14364045e-10
 2.14364045e-10
 2.14364045e-10
 2.14364045e-10
 2.14364045e-10
 2.14364045e-10
 2.14364045e-10
 2.14364045e-10
 2.14364045e-10
 2.14364045e-10
 2.14364045e-10
 2.14364045e-10
 2.14364045e-10
 2.14364045e-10
 2.14364045e-10
 2.14364045e-10
 4.32902175e-06
 4.32902175e-06
 4.32902175e-06
 4.32902175e-06
 4.32902175e-06
 4.32902175e-06
 8.07153183e-06
 8.07153183e-06
 8.07153183e-06
 8.07153183e-06
 8.07153183e-06
 8.07153183e-06
 8.07153183e-06
 8.07153183e-06
 8.07153183e-06
 8.07153183e-06
 8.07153183e-06
 8.07153183e-06
 8.07153183e-06
 8.07153183e-06
 8.07153183e-06
 8.61961587e-06
 8.61961587e-06
 8.61961587e-06
 8.61961587e-06
 8.61961587e-06
 8.61961587e-06
 8.61961587e-06
 8.61961587e-06
 8.61961587e-06
 8.61961587e-06
 3.09880623e-05
 3.09880623e-05
 3.09880623e-05
 3.09880623e-05
 3.09880623e-05
 3.09880623e-05
 3.09880623e-05
 3.09880623e-05
 3.09880623e-05
 3.09880623e-05
 3.09880623e-05
 3.09880623e-05
 6.98523476e-06
 6.98523476e-06
 6.98523476e-06
 2.55742443e-05
 2.55742443e-05
 2.55742443e-05
 2.55742443e-05
 3.09324204e-06
 3.09324204e-06
 3.09324204e-06
 1.30833941e-06
 1.30833941e-06
 2.36293546e-07
 2.36293546e-07
 2.36293546e-07
 2.36293546e-07
 2.36293546e-07
 2.36293546e-07
)
)
1
(
101
(
 2.58577026e-10
 2.58577026e-10
 2.58577026e-10
 2.58577026e-10
 2.58577026e-10
 2.58577026e-10
 2.58577026e-10
 2.58577026e-10
 2.58577026e-10
 2.58577026e-10
 2.58577026e-10
 2.58577026e-10
 2.58577026e-10
 2.58577026e-10
 2.58577026e-10
 2.58577026e-10
 2.58577026e-10
 2.58577026e-10
 2.58577026e-10
 2.58577026e-10
 2.58577026e-10
 2.58577026e-10
 2.58577026e-10
 2.58577026e-10
 2.58577026e-10
 2.58577026e-10
 2.58577026e-10
 2.58577026e-10
 2.58577026e-10
 2.58577026e-10
 2.58577026e-10
 2.58577026e-10
 2.58577026e-10
 2.58577026e-10
 2.58577026e-10
 2.58577026e-10
 2.58577026e-10
 2.58577026e-10
 2.58577026e-10
 4.32902175e-06
 4.32902175e-06
 4.32902175e-06
 4.32902175e-06
 4.32902175e-06
 4.32902175e-06
 4.32902175e-06
 4.32902175e-06
 4.32902175e-06
 8.07153183e-06
 8.07153183e-06
 8.07153183e-06
 8.07153183e-06
 8.07153183e-06
 8.07153183e-06
 8.07153183e-06
 8.07153183e-06
 8.07153183e-06
 8.07153183e-06
 8.07153183e-06
 8.07153183e-06
 8.07153183e-06
 8.07153183e-06
 8.61961587e-06
 8.61961587e-06
 8.61961587e-06
 8.61961587e-06
 8.61961587e-06
 8.61961587e-06
 8.61961587e-06
 8.61961587e-06
 8.61961587e-06
 8.61961587e-06
 3.09880623e-05
 3.09880623e-05
 3.09880623e-05
 3.09880623e-05
 3.09880623e-05
 3.09880623e-05
 3.09880623e-05
 3.09880623e-05
 3.09880623e-05
 3.09880623e-05
 3.09880623e-05
 3.09880623e-05
 6.98523476e-06
 6.98523476e-06
 6.98523476e-06
 6.98523476e-06
 4.32394203e-06
 4.32394203e-06
 4.32394203e-06
 3.09324204e-06
 3.09324204e-06
 3.09324204e-06
 1.30833941e-06
 1.30833941e-06
 2.36293546e-07
 2.36293546e-07
 2.36293546e-07