/*--------------------------------*- C++ -*----------------------------------*\
| =========                 |                                                 |
| \\      /  F ield        | OpenFOAM: The Open Source CFD Toolbox           |
|  \\    /   O peration    | Version:  7                                     |
|   \\  /    A nd          | Web:      http://www.OpenFOAM.com               |
|    \\/     M anipulation |                                                 |
\*---------------------------------------------------------------------------*/

FoamFile
{
    version     2.0;
    format      ascii;
    class       dictionary;
    object      Y_CH3CHO_table;
}

Y_CH3CHO_table
2
(
101
(
1
(
101
(
 3.97470633e-18
 3.97470633e-18
 3.97470633e-18
 3.97470633e-18
 3.97470633e-18
 3.97470633e-18
 3.97470633e-18
 3.97470633e-18
 3.97470633e-18
 3.97470633e-18
 3.97470633e-18
 3.97470633e-18
 3.97470633e-18
 3.97470633e-18
 3.97470633e-18
 3.97470633e-18
 3.97470633e-18
 3.97470633e-18
 3.97470633e-18
 3.97470633e-18
 3.97470633e-18
 3.97470633e-18
 3.97470633e-18
 3.97470633e-18
 3.97470633e-18
 3.97470633e-18
 3.97470633e-18
 3.97470633e-18
 3.97470633e-18
 3.97470633e-18
 3.97470633e-18
 3.97470633e-18
 3.97470633e-18
 3.97470633e-18
 3.97470633e-18
 3.97470633e-18
 3.97470633e-18
 3.97470633e-18
 3.97470633e-18
 3.97470633e-18
 3.97470633e-18
 3.97470633e-18
 3.97470633e-18
 3.97470633e-18
 3.97470633e-18
 4.81821262e-08
 4.81821262e-08
 5.01963911e-07
 5.01963911e-07
 5.01963911e-07
 5.01963911e-07
 5.01963911e-07
 5.01963911e-07
 5.01963911e-07
 5.01963911e-07
 5.01963911e-07
 5.01963911e-07
 5.01963911e-07
 5.01963911e-07
 5.01963911e-07
 5.01963911e-07
 5.01963911e-07
 5.01963911e-07
 4.44576757e-07
 4.44576757e-07
 4.44576757e-07
 4.44576757e-07
 4.44576757e-07
 4.44576757e-07
 4.44576757e-07
 4.44576757e-07
 4.44576757e-07
 4.44576757e-07
 4.44576757e-07
 4.44576757e-07
 1.71388636e-08
 1.71388636e-08
 1.71388636e-08
 1.71388636e-08
 1.71388636e-08
 1.71388636e-08
 1.71388636e-08
 2.24279193e-08
 2.24279193e-08
 2.24279193e-08
 2.24279193e-08
 2.24279193e-08
 2.24279193e-08
 1.52417238e-08
 1.52417238e-08
 1.52417238e-08
 1.52417238e-08
 1.52417238e-08
 1.52417238e-08
 1.52417238e-08
 2.71875465e-09
 2.71875465e-09
 2.71875465e-09
 2.71875465e-09
 2.71875465e-09
 1.84749099e-11
)
)
1
(
101
(
 4.89736647e-16
 4.89736647e-16
 4.89736647e-16
 4.89736647e-16
 4.89736647e-16
 4.89736647e-16
 4.89736647e-16
 4.89736647e-16
 4.89736647e-16
 4.89736647e-16
 4.89736647e-16
 4.89736647e-16
 4.89736647e-16
 4.89736647e-16
 4.89736647e-16
 4.89736647e-16
 4.89736647e-16
 4.89736647e-16
 4.89736647e-16
 4.89736647e-16
 4.89736647e-16
 4.89736647e-16
 4.89736647e-16
 4.89736647e-16
 4.89736647e-16
 4.89736647e-16
 4.89736647e-16
 4.89736647e-16
 4.89736647e-16
 4.89736647e-16
 4.89736647e-16
 4.89736647e-16
 4.89736647e-16
 4.89736647e-16
 4.89736647e-16
 4.89736647e-16
 4.89736647e-16
 4.89736647e-16
 4.89736647e-16
 4.89736647e-16
 4.89736647e-16
 4.89736647e-16
 4.89736647e-16
 4.89736647e-16
 4.89736647e-16
 4.81821262e-08
 4.81821262e-08
 4.81821262e-08
 5.01963911e-07
 5.01963911e-07
 5.01963911e-07
 5.01963911e-07
 5.01963911e-07
 5.01963911e-07
 5.01963911e-07
 5.01963911e-07
 5.01963911e-07
 5.01963911e-07
 5.01963911e-07
 5.01963911e-07
 5.01963911e-07
 5.01963911e-07
 5.01963911e-07
 5.01963911e-07
 5.01963911e-07
 4.44576757e-07
 4.44576757e-07
 4.44576757e-07
 4.44576757e-07
 4.44576757e-07
 4.44576757e-07
 4.44576757e-07
 4.44576757e-07
 4.44576757e-07
 4.44576757e-07
 4.44576757e-07
 4.44576757e-07
 1.71388636e-08
 1.71388636e-08
 1.71388636e-08
 1.71388636e-08
 1.71388636e-08
 1.71388636e-08
 2.24279193e-08
 2.24279193e-08
 2.24279193e-08
 2.24279193e-08
 2.24279193e-08
 2.24279193e-08
 2.24279193e-08
 1.52417238e-08
 1.52417238e-08
 1.52417238e-08
 1.52417238e-08
 1.52417238e-08
 1.52417238e-08
 8.20894472e-09
 2.71875465e-09
 2.71875465e-09
 2.71875465e-09
 4.77716251e-10
)
)
1
(
101
(
 1.76304336e-15
 1.76304336e-15
 1.76304336e-15
 1.76304336e-15
 1.76304336e-15
 1.76304336e-15
 1.76304336e-15
 1.76304336e-15
 1.76304336e-15
 1.76304336e-15
 1.76304336e-15
 1.76304336e-15
 1.76304336e-15
 1.76304336e-15
 1.76304336e-15
 1.76304336e-15
 1.76304336e-15
 1.76304336e-15
 1.76304336e-15
 1.76304336e-15
 1.76304336e-15
 1.76304336e-15
 1.76304336e-15
 1.76304336e-15
 1.76304336e-15
 1.76304336e-15
 1.76304336e-15
 1.76304336e-15
 1.76304336e-15
 1.76304336e-15
 1.76304336e-15
 1.76304336e-15
 1.76304336e-15
 1.76304336e-15
 1.76304336e-15
 1.76304336e-15
 1.76304336e-15
 1.76304336e-15
 1.76304336e-15
 1.76304336e-15
 1.76304336e-15
 1.76304336e-15
 1.76304336e-15
 1.76304336e-15
 4.81821262e-08
 4.81821262e-08
 4.81821262e-08
 4.81821262e-08
 4.81821262e-08
 4.81821262e-08
 5.01963911e-07
 5.01963911e-07
 5.01963911e-07
 5.01963911e-07
 5.01963911e-07
 5.01963911e-07
 5.01963911e-07
 5.01963911e-07
 5.01963911e-07
 5.01963911e-07
 5.01963911e-07
 5.01963911e-07
 5.01963911e-07
 5.01963911e-07
 5.01963911e-07
 5.01963911e-07
 4.44576757e-07
 4.44576757e-07
 4.44576757e-07
 4.44576757e-07
 4.44576757e-07
 4.44576757e-07
 4.44576757e-07
 4.44576757e-07
 4.44576757e-07
 4.44576757e-07
 4.44576757e-07
 4.44576757e-07
 1.71388636e-08
 1.71388636e-08
 1.71388636e-08
 1.71388636e-08
 1.71388636e-08
 1.71388636e-08
 1.71388636e-08
 2.24279193e-08
 2.24279193e-08
 2.24279193e-08
 2.24279193e-08
 2.24279193e-08
 2.24279193e-08
 1.52417238e-08
 1.52417238e-08
 1.52417238e-08
 1.52417238e-08
 1.52417238e-08
 1.52417238e-08
 8.20894472e-09
 8.20894472e-09
 2.21553805e-09
 2.21553805e-09
)
)
1
(
101
(
 2.53510649e-15
 2.53510649e-15
 2.53510649e-15
 2.53510649e-15
 2.53510649e-15
 2.53510649e-15
 2.53510649e-15
 2.53510649e-15
 2.53510649e-15
 2.53510649e-15
 2.53510649e-15
 2.53510649e-15
 2.53510649e-15
 2.53510649e-15
 2.53510649e-15
 2.53510649e-15
 2.53510649e-15
 2.53510649e-15
 2.53510649e-15
 2.53510649e-15
 2.53510649e-15
 2.53510649e-15
 2.53510649e-15
 2.53510649e-15
 2.53510649e-15
 2.53510649e-15
 2.53510649e-15
 2.53510649e-15
 2.53510649e-15
 2.53510649e-15
 2.53510649e-15
 2.53510649e-15
 2.53510649e-15
 2.53510649e-15
 2.53510649e-15
 2.53510649e-15
 2.53510649e-15
 2.53510649e-15
 2.53510649e-15
 2.53510649e-15
 2.53510649e-15
 2.53510649e-15
 2.53510649e-15
 2.53510649e-15
 4.20650374e-08
 4.81821262e-08
 4.81821262e-08
 4.81821262e-08
 4.81821262e-08
 4.81821262e-08
 4.81821262e-08
 5.01963911e-07
 5.01963911e-07
 5.01963911e-07
 5.01963911e-07
 5.01963911e-07
 5.01963911e-07
 5.01963911e-07
 5.01963911e-07
 5.01963911e-07
 5.01963911e-07
 5.01963911e-07
 5.01963911e-07
 5.01963911e-07
 5.01963911e-07
 5.01963911e-07
 5.01963911e-07
 4.44576757e-07
 4.44576757e-07
 4.44576757e-07
 4.44576757e-07
 4.44576757e-07
 4.44576757e-07
 4.44576757e-07
 4.44576757e-07
 4.44576757e-07
 4.44576757e-07
 4.44576757e-07
 4.44576757e-07
 3.50944629e-08
 1.71388636e-08
 1.71388636e-08
 1.71388636e-08
 1.71388636e-08
 1.71388636e-08
 1.71388636e-08
 2.24279193e-08
 2.24279193e-08
 2.24279193e-08
 2.24279193e-08
 2.24279193e-08
 2.24279193e-08
 2.24279193e-08
 1.52417238e-08
 1.52417238e-08
 1.52417238e-08
 1.52417238e-08
 1.52417238e-08
 8.20894472e-09
 2.28187462e-10
 2.28187462e-10
)
)
1
(
101
(
 4.53860607e-15
 4.53860607e-15
 4.53860607e-15
 4.53860607e-15
 4.53860607e-15
 4.53860607e-15
 4.53860607e-15
 4.53860607e-15
 4.53860607e-15
 4.53860607e-15
 4.53860607e-15
 4.53860607e-15
 4.53860607e-15
 4.53860607e-15
 4.53860607e-15
 4.53860607e-15
 4.53860607e-15
 4.53860607e-15
 4.53860607e-15
 4.53860607e-15
 4.53860607e-15
 4.53860607e-15
 4.53860607e-15
 4.53860607e-15
 4.53860607e-15
 4.53860607e-15
 4.53860607e-15
 4.53860607e-15
 4.53860607e-15
 4.53860607e-15
 4.53860607e-15
 4.53860607e-15
 4.53860607e-15
 4.53860607e-15
 4.53860607e-15
 4.53860607e-15
 4.53860607e-15
 4.53860607e-15
 4.53860607e-15
 4.53860607e-15
 4.53860607e-15
 4.53860607e-15
 4.53860607e-15
 4.53860607e-15
 4.20650374e-08
 4.20650374e-08
 4.20650374e-08
 4.81821262e-08
 4.81821262e-08
 4.81821262e-08
 4.81821262e-08
 4.81821262e-08
 4.81821262e-08
 5.01963911e-07
 5.01963911e-07
 5.01963911e-07
 5.01963911e-07
 5.01963911e-07
 5.01963911e-07
 5.01963911e-07
 5.01963911e-07
 5.01963911e-07
 5.01963911e-07
 5.01963911e-07
 5.01963911e-07
 5.01963911e-07
 5.01963911e-07
 5.01963911e-07
 4.44576757e-07
 4.44576757e-07
 4.44576757e-07
 4.44576757e-07
 4.44576757e-07
 4.44576757e-07
 4.44576757e-07
 4.44576757e-07
 4.44576757e-07
 4.44576757e-07
 4.44576757e-07
 4.44576757e-07
 3.50944629e-08
 1.71388636e-08
 1.71388636e-08
 1.71388636e-08
 1.71388636e-08
 1.71388636e-08
 1.71388636e-08
 1.71388636e-08
 2.24279193e-08
 2.24279193e-08
 2.24279193e-08
 2.24279193e-08
 2.24279193e-08
 2.24279193e-08
 1.92487065e-08
 1.52417238e-08
 1.52417238e-08
 1.52417238e-08
 2.57025792e-09
 2.57025792e-09
 2.28187462e-10
)
)
1
(
101
(
 4.78625336e-15
 4.78625336e-15
 4.78625336e-15
 4.78625336e-15
 4.78625336e-15
 4.78625336e-15
 4.78625336e-15
 4.78625336e-15
 4.78625336e-15
 4.78625336e-15
 4.78625336e-15
 4.78625336e-15
 4.78625336e-15
 4.78625336e-15
 4.78625336e-15
 4.78625336e-15
 4.78625336e-15
 4.78625336e-15
 4.78625336e-15
 4.78625336e-15
 4.78625336e-15
 4.78625336e-15
 4.78625336e-15
 4.78625336e-15
 4.78625336e-15
 4.78625336e-15
 4.78625336e-15
 4.78625336e-15
 4.78625336e-15
 4.78625336e-15
 4.78625336e-15
 4.78625336e-15
 4.78625336e-15
 4.78625336e-15
 4.78625336e-15
 4.78625336e-15
 4.78625336e-15
 4.78625336e-15
 4.78625336e-15
 4.78625336e-15
 4.78625336e-15
 4.78625336e-15
 2.40783728e-14
 4.20650374e-08
 4.20650374e-08
 4.20650374e-08
 4.20650374e-08
 4.20650374e-08
 4.81821262e-08
 4.81821262e-08
 4.81821262e-08
 4.81821262e-08
 4.81821262e-08
 4.81821262e-08
 5.01963911e-07
 5.01963911e-07
 5.01963911e-07
 5.01963911e-07
 5.01963911e-07
 5.01963911e-07
 5.01963911e-07
 5.01963911e-07
 5.01963911e-07
 5.01963911e-07
 5.01963911e-07
 5.01963911e-07
 5.01963911e-07
 5.01963911e-07
 5.01963911e-07
 5.01963911e-07
 4.44576757e-07
 4.44576757e-07
 4.44576757e-07
 4.44576757e-07
 4.44576757e-07
 4.44576757e-07
 4.44576757e-07
 4.44576757e-07
 4.44576757e-07
 4.44576757e-07
 4.44576757e-07
 3.50944629e-08
 3.50944629e-08
 1.71388636e-08
 1.71388636e-08
 1.71388636e-08
 1.71388636e-08
 1.71388636e-08
 1.71388636e-08
 2.24279193e-08
 2.24279193e-08
 2.24279193e-08
 2.24279193e-08
 2.24279193e-08
 2.24279193e-08
 1.92487065e-08
 1.92487065e-08
 6.63233337e-09
 6.63233337e-09
 2.57025792e-09
 2.57025792e-09
)
)
1
(
101
(
 1.04701081e-14
 1.04701081e-14
 1.04701081e-14
 1.04701081e-14
 1.04701081e-14
 1.04701081e-14
 1.04701081e-14
 1.04701081e-14
 1.04701081e-14
 1.04701081e-14
 1.04701081e-14
 1.04701081e-14
 1.04701081e-14
 1.04701081e-14
 1.04701081e-14
 1.04701081e-14
 1.04701081e-14
 1.04701081e-14
 1.04701081e-14
 1.04701081e-14
 1.04701081e-14
 1.04701081e-14
 1.04701081e-14
 1.04701081e-14
 1.04701081e-14
 1.04701081e-14
 1.04701081e-14
 1.04701081e-14
 1.04701081e-14
 1.04701081e-14
 1.04701081e-14
 1.04701081e-14
 1.04701081e-14
 2.40783728e-14
 2.40783728e-14
 2.40783728e-14
 2.40783728e-14
 2.40783728e-14
 2.40783728e-14
 2.40783728e-14
 2.40783728e-14
 2.40783728e-14
 2.40783728e-14
 4.20650374e-08
 4.20650374e-08
 4.20650374e-08
 4.20650374e-08
 4.20650374e-08
 4.20650374e-08
 4.81821262e-08
 4.81821262e-08
 4.81821262e-08
 4.81821262e-08
 4.81821262e-08
 4.81821262e-08
 4.81821262e-08
 5.01963911e-07
 5.01963911e-07
 5.01963911e-07
 5.01963911e-07
 5.01963911e-07
 5.01963911e-07
 5.01963911e-07
 5.01963911e-07
 5.01963911e-07
 5.01963911e-07
 5.01963911e-07
 5.01963911e-07
 5.01963911e-07
 5.01963911e-07
 5.01963911e-07
 4.44576757e-07
 4.44576757e-07
 4.44576757e-07
 4.44576757e-07
 4.44576757e-07
 4.44576757e-07
 4.44576757e-07
 4.44576757e-07
 4.44576757e-07
 4.44576757e-07
 4.44576757e-07
 3.50944629e-08
 3.50944629e-08
 1.71388636e-08
 1.71388636e-08
 1.71388636e-08
 1.71388636e-08
 1.71388636e-08
 1.71388636e-08
 1.71388636e-08
 2.24279193e-08
 2.24279193e-08
 2.24279193e-08
 2.24279193e-08
 2.24279193e-08
 1.92487065e-08
 1.92487065e-08
 6.63233337e-09
 6.63233337e-09
 2.57025792e-09
)
)
1
(
101
(
 9.82036690e-15
 9.82036690e-15
 9.82036690e-15
 9.82036690e-15
 9.82036690e-15
 9.82036690e-15
 9.82036690e-15
 9.82036690e-15
 9.82036690e-15
 9.82036690e-15
 9.82036690e-15
 9.82036690e-15
 9.82036690e-15
 9.82036690e-15
 9.82036690e-15
 9.82036690e-15
 9.82036690e-15
 9.82036690e-15
 9.82036690e-15
 9.82036690e-15
 9.82036690e-15
 9.82036690e-15
 9.82036690e-15
 9.82036690e-15
 9.82036690e-15
 9.82036690e-15
 2.40783728e-14
 2.40783728e-14
 2.40783728e-14
 2.40783728e-14
 2.40783728e-14
 2.40783728e-14
 2.40783728e-14
 2.40783728e-14
 2.40783728e-14
 2.40783728e-14
 2.40783728e-14
 2.40783728e-14
 2.40783728e-14
 2.40783728e-14
 2.40783728e-14
 2.40783728e-14
 2.40783728e-14
 4.20650374e-08
 4.20650374e-08
 4.20650374e-08
 4.20650374e-08
 4.20650374e-08
 4.20650374e-08
 4.20650374e-08
 4.81821262e-08
 4.81821262e-08
 4.81821262e-08
 4.81821262e-08
 4.81821262e-08
 4.81821262e-08
 4.81821262e-08
 5.01963911e-07
 5.01963911e-07
 5.01963911e-07
 5.01963911e-07
 5.01963911e-07
 5.01963911e-07
 5.01963911e-07
 5.01963911e-07
 5.01963911e-07
 5.01963911e-07
 5.01963911e-07
 5.01963911e-07
 5.01963911e-07
 5.01963911e-07
 5.01963911e-07
 4.44576757e-07
 4.44576757e-07
 4.44576757e-07
 4.44576757e-07
 4.44576757e-07
 4.44576757e-07
 4.44576757e-07
 4.44576757e-07
 4.44576757e-07
 4.44576757e-07
 4.44576757e-07
 3.50944629e-08
 3.50944629e-08
 3.50944629e-08
 1.71388636e-08
 1.71388636e-08
 1.71388636e-08
 1.71388636e-08
 1.71388636e-08
 1.71388636e-08
 3.09706537e-08
 2.24279193e-08
 2.24279193e-08
 2.24279193e-08
 5.85322611e-09
 5.85322611e-09
 5.85322611e-09
 6.63233337e-09
 6.63233337e-09
)
)
1
(
101
(
 1.17367100e-14
 1.17367100e-14
 1.17367100e-14
 1.17367100e-14
 1.17367100e-14
 1.17367100e-14
 1.17367100e-14
 1.17367100e-14
 1.17367100e-14
 1.17367100e-14
 1.17367100e-14
 1.17367100e-14
 1.17367100e-14
 1.17367100e-14
 1.17367100e-14
 1.17367100e-14
 1.17367100e-14
 1.17367100e-14
 1.17367100e-14
 2.40783728e-14
 2.40783728e-14
 2.40783728e-14
 2.40783728e-14
 2.40783728e-14
 2.40783728e-14
 2.40783728e-14
 2.40783728e-14
 2.40783728e-14
 2.40783728e-14
 2.40783728e-14
 2.40783728e-14
 2.40783728e-14
 2.40783728e-14
 2.40783728e-14
 2.40783728e-14
 2.40783728e-14
 2.40783728e-14
 2.40783728e-14
 2.40783728e-14
 2.40783728e-14
 2.40783728e-14
 2.40783728e-14
 4.20650374e-08
 4.20650374e-08
 4.20650374e-08
 4.20650374e-08
 4.20650374e-08
 4.20650374e-08
 4.20650374e-08
 4.20650374e-08
 4.20650374e-08
 4.81821262e-08
 4.81821262e-08
 4.81821262e-08
 4.81821262e-08
 4.81821262e-08
 4.81821262e-08
 4.81821262e-08
 4.81821262e-08
 5.01963911e-07
 5.01963911e-07
 5.01963911e-07
 5.01963911e-07
 5.01963911e-07
 5.01963911e-07
 5.01963911e-07
 5.01963911e-07
 5.01963911e-07
 5.01963911e-07
 5.01963911e-07
 5.01963911e-07
 5.01963911e-07
 5.01963911e-07
 4.44576757e-07
 4.44576757e-07
 4.44576757e-07
 4.44576757e-07
 4.44576757e-07
 4.44576757e-07
 4.44576757e-07
 4.44576757e-07
 4.44576757e-07
 4.44576757e-07
 4.44576757e-07
 3.50944629e-08
 3.50944629e-08
 3.50944629e-08
 1.71388636e-08
 1.71388636e-08
 1.71388636e-08
 1.71388636e-08
 1.71388636e-08
 1.71388636e-08
 3.09706537e-08
 3.09706537e-08
 6.81454463e-09
 6.81454463e-09
 5.85322611e-09
 5.85322611e-09
 5.85322611e-09
 5.85322611e-09
)
)
1
(
101
(
 2.72948581e-14
 2.72948581e-14
 2.72948581e-14
 2.72948581e-14
 2.72948581e-14
 2.72948581e-14
 2.72948581e-14
 2.72948581e-14
 2.72948581e-14
 2.72948581e-14
 2.72948581e-14
 2.72948581e-14
 2.72948581e-14
 2.72948581e-14
 2.40783728e-14
 2.40783728e-14
 2.40783728e-14
 2.40783728e-14
 2.40783728e-14
 2.40783728e-14
 2.40783728e-14
 2.40783728e-14
 2.40783728e-14
 2.40783728e-14
 2.40783728e-14
 2.40783728e-14
 2.40783728e-14
 2.40783728e-14
 2.40783728e-14
 2.40783728e-14
 2.40783728e-14
 2.40783728e-14
 2.40783728e-14
 2.40783728e-14
 2.40783728e-14
 2.40783728e-14
 2.40783728e-14
 2.40783728e-14
 2.40783728e-14
 2.40783728e-14
 2.40783728e-14
 2.40783728e-14
 4.20650374e-08
 4.20650374e-08
 4.20650374e-08
 4.20650374e-08
 4.20650374e-08
 4.20650374e-08
 4.20650374e-08
 4.20650374e-08
 4.20650374e-08
 4.20650374e-08
 4.81821262e-08
 4.81821262e-08
 4.81821262e-08
 4.81821262e-08
 4.81821262e-08
 4.81821262e-08
 4.81821262e-08
 4.81821262e-08
 5.01963911e-07
 5.01963911e-07
 5.01963911e-07
 5.01963911e-07
 5.01963911e-07
 5.01963911e-07
 5.01963911e-07
 5.01963911e-07
 5.01963911e-07
 5.01963911e-07
 5.01963911e-07
 5.01963911e-07
 5.01963911e-07
 5.01963911e-07
 5.01963911e-07
 4.44576757e-07
 4.44576757e-07
 4.44576757e-07
 4.44576757e-07
 4.44576757e-07
 4.44576757e-07
 4.44576757e-07
 4.44576757e-07
 4.44576757e-07
 4.44576757e-07
 3.50944629e-08
 3.50944629e-08
 3.50944629e-08
 3.50944629e-08
 1.71388636e-08
 1.71388636e-08
 1.71388636e-08
 1.71388636e-08
 1.71388636e-08
 3.09706537e-08
 3.09706537e-08
 6.81454463e-09
 6.81454463e-09
 5.85322611e-09
 5.85322611e-09
 5.85322611e-09
)
)
1
(
101
(
 2.15931277e-14
 2.15931277e-14
 2.15931277e-14
 2.15931277e-14
 2.15931277e-14
 2.15931277e-14
 2.15931277e-14
 2.15931277e-14
 2.15931277e-14
 2.40783728e-14
 2.40783728e-14
 2.40783728e-14
 2.40783728e-14
 2.40783728e-14
 2.40783728e-14
 2.40783728e-14
 2.40783728e-14
 2.40783728e-14
 2.40783728e-14
 2.40783728e-14
 2.40783728e-14
 2.40783728e-14
 2.40783728e-14
 2.40783728e-14
 2.40783728e-14
 2.40783728e-14
 2.40783728e-14
 2.40783728e-14
 2.40783728e-14
 2.40783728e-14
 2.40783728e-14
 2.40783728e-14
 2.40783728e-14
 2.40783728e-14
 2.40783728e-14
 2.40783728e-14
 2.40783728e-14
 2.40783728e-14
 2.40783728e-14
 2.40783728e-14
 2.40783728e-14
 2.40783728e-14
 4.20650374e-08
 4.20650374e-08
 4.20650374e-08
 4.20650374e-08
 4.20650374e-08
 4.20650374e-08
 4.20650374e-08
 4.20650374e-08
 4.20650374e-08
 4.20650374e-08
 4.20650374e-08
 4.20650374e-08
 4.81821262e-08
 4.81821262e-08
 4.81821262e-08
 4.81821262e-08
 4.81821262e-08
 4.81821262e-08
 4.81821262e-08
 4.81821262e-08
 5.01963911e-07
 5.01963911e-07
 5.01963911e-07
 5.01963911e-07
 5.01963911e-07
 5.01963911e-07
 5.01963911e-07
 5.01963911e-07
 5.01963911e-07
 5.01963911e-07
 5.01963911e-07
 5.01963911e-07
 5.01963911e-07
 5.01963911e-07
 4.44576757e-07
 4.44576757e-07
 4.44576757e-07
 4.44576757e-07
 4.44576757e-07
 4.44576757e-07
 4.44576757e-07
 4.44576757e-07
 4.44576757e-07
 4.44576757e-07
 3.50944629e-08
 3.50944629e-08
 3.50944629e-08
 3.50944629e-08
 1.60878435e-08
 1.71388636e-08
 1.71388636e-08
 1.71388636e-08
 1.71388636e-08
 3.09706537e-08
 3.09706537e-08
 6.81454463e-09
 6.81454463e-09
 5.85322611e-09
 5.85322611e-09
)
)
1
(
101
(
 2.68703824e-14
 2.68703824e-14
 2.68703824e-14
 2.68703824e-14
 2.68703824e-14
 2.68703824e-14
 2.40783728e-14
 2.40783728e-14
 2.40783728e-14
 2.40783728e-14
 2.40783728e-14
 2.40783728e-14
 2.40783728e-14
 2.40783728e-14
 2.40783728e-14
 2.40783728e-14
 2.40783728e-14
 2.40783728e-14
 2.40783728e-14
 2.40783728e-14
 2.40783728e-14
 2.40783728e-14
 2.40783728e-14
 2.40783728e-14
 2.40783728e-14
 2.40783728e-14
 2.40783728e-14
 2.40783728e-14
 2.40783728e-14
 2.40783728e-14
 2.40783728e-14
 2.40783728e-14
 2.40783728e-14
 2.40783728e-14
 2.40783728e-14
 2.40783728e-14
 2.40783728e-14
 2.40783728e-14
 2.40783728e-14
 2.40783728e-14
 2.40783728e-14
 2.40783728e-14
 4.20650374e-08
 4.20650374e-08
 4.20650374e-08
 4.20650374e-08
 4.20650374e-08
 4.20650374e-08
 4.20650374e-08
 4.20650374e-08
 4.20650374e-08
 4.20650374e-08
 4.20650374e-08
 4.20650374e-08
 4.20650374e-08
 4.81821262e-08
 4.81821262e-08
 4.81821262e-08
 4.81821262e-08
 4.81821262e-08
 4.81821262e-08
 4.81821262e-08
 4.81821262e-08
 5.01963911e-07
 5.01963911e-07
 5.01963911e-07
 5.01963911e-07
 5.01963911e-07
 5.01963911e-07
 5.01963911e-07
 5.01963911e-07
 5.01963911e-07
 5.01963911e-07
 5.01963911e-07
 5.01963911e-07
 5.01963911e-07
 5.01963911e-07
 4.44576757e-07
 4.44576757e-07
 4.44576757e-07
 4.44576757e-07
 4.44576757e-07
 4.44576757e-07
 4.44576757e-07
 4.44576757e-07
 4.44576757e-07
 4.44576757e-07
 3.50944629e-08
 3.50944629e-08
 3.50944629e-08
 3.50944629e-08
 1.60878435e-08
 1.60878435e-08
 1.15282139e-08
 1.15282139e-08
 1.15282139e-08
 3.09706537e-08
 3.09706537e-08
 6.81454463e-09
 6.81454463e-09
 5.85322611e-09
)
)
1
(
101
(
 3.58471364e-14
 3.58471364e-14
 3.58471364e-14
 2.40783728e-14
 2.40783728e-14
 2.40783728e-14
 2.40783728e-14
 2.40783728e-14
 2.40783728e-14
 2.40783728e-14
 2.40783728e-14
 2.40783728e-14
 2.40783728e-14
 2.40783728e-14
 2.40783728e-14
 2.40783728e-14
 2.40783728e-14
 2.40783728e-14
 2.40783728e-14
 2.40783728e-14
 2.40783728e-14
 2.40783728e-14
 2.40783728e-14
 2.40783728e-14
 2.40783728e-14
 2.40783728e-14
 2.40783728e-14
 2.40783728e-14
 2.40783728e-14
 2.40783728e-14
 2.40783728e-14
 2.40783728e-14
 2.40783728e-14
 2.40783728e-14
 2.40783728e-14
 2.40783728e-14
 2.40783728e-14
 2.40783728e-14
 2.40783728e-14
 2.40783728e-14
 2.40783728e-14
 1.52681087e-08
 4.20650374e-08
 4.20650374e-08
 4.20650374e-08
 4.20650374e-08
 4.20650374e-08
 4.20650374e-08
 4.20650374e-08
 4.20650374e-08
 4.20650374e-08
 4.20650374e-08
 4.20650374e-08
 4.20650374e-08
 4.20650374e-08
 4.20650374e-08
 4.81821262e-08
 4.81821262e-08
 4.81821262e-08
 4.81821262e-08
 4.81821262e-08
 4.81821262e-08
 4.81821262e-08
 4.81821262e-08
 4.81821262e-08
 5.01963911e-07
 5.01963911e-07
 5.01963911e-07
 5.01963911e-07
 5.01963911e-07
 5.01963911e-07
 5.01963911e-07
 5.01963911e-07
 5.01963911e-07
 5.01963911e-07
 5.01963911e-07
 5.01963911e-07
 5.01963911e-07
 4.44576757e-07
 4.44576757e-07
 4.44576757e-07
 4.44576757e-07
 4.44576757e-07
 4.44576757e-07
 4.44576757e-07
 4.44576757e-07
 4.44576757e-07
 4.44576757e-07
 3.50944629e-08
 3.50944629e-08
 3.50944629e-08
 3.50944629e-08
 1.60878435e-08
 1.60878435e-08
 1.15282139e-08
 1.15282139e-08
 1.15282139e-08
 1.15282139e-08
 3.09706537e-08
 6.81454463e-09
 6.81454463e-09
)
)
1
(
101
(
 7.23910663e-15
 7.23910663e-15
 2.40783728e-14
 2.40783728e-14
 2.40783728e-14
 2.40783728e-14
 2.40783728e-14
 2.40783728e-14
 2.40783728e-14
 2.40783728e-14
 2.40783728e-14
 2.40783728e-14
 2.40783728e-14
 2.40783728e-14
 2.40783728e-14
 2.40783728e-14
 2.40783728e-14
 2.40783728e-14
 2.40783728e-14
 2.40783728e-14
 2.40783728e-14
 2.40783728e-14
 2.40783728e-14
 2.40783728e-14
 2.40783728e-14
 2.40783728e-14
 2.40783728e-14
 2.40783728e-14
 2.40783728e-14
 2.40783728e-14
 2.40783728e-14
 2.40783728e-14
 2.40783728e-14
 2.40783728e-14
 2.40783728e-14
 2.40783728e-14
 2.40783728e-14
 2.40783728e-14
 2.40783728e-14
 2.40783728e-14
 2.40783728e-14
 1.52681087e-08
 1.52681087e-08
 4.20650374e-08
 4.20650374e-08
 4.20650374e-08
 4.20650374e-08
 4.20650374e-08
 4.20650374e-08
 4.20650374e-08
 4.20650374e-08
 4.20650374e-08
 4.20650374e-08
 4.20650374e-08
 4.20650374e-08
 4.20650374e-08
 4.20650374e-08
 4.81821262e-08
 4.81821262e-08
 4.81821262e-08
 4.81821262e-08
 4.81821262e-08
 4.81821262e-08
 4.81821262e-08
 4.81821262e-08
 4.81821262e-08
 5.01963911e-07
 5.01963911e-07
 5.01963911e-07
 5.01963911e-07
 5.01963911e-07
 5.01963911e-07
 5.01963911e-07
 5.01963911e-07
 5.01963911e-07
 5.01963911e-07
 5.01963911e-07
 5.01963911e-07
 5.01963911e-07
 5.01963911e-07
 4.44576757e-07
 4.44576757e-07
 4.44576757e-07
 4.44576757e-07
 4.44576757e-07
 4.44576757e-07
 4.44576757e-07
 4.44576757e-07
 2.06224796e-08
 3.50944629e-08
 3.50944629e-08
 3.50944629e-08
 2.25409711e-09
 2.25409711e-09
 2.25409711e-09
 1.15282139e-08
 1.15282139e-08
 1.15282139e-08
 1.15282139e-08
 1.15282139e-08
 6.81454463e-09
)
)
1
(
101
(
 2.12612012e-23
 2.40783728e-14
 2.40783728e-14
 2.40783728e-14
 2.40783728e-14
 2.40783728e-14
 2.40783728e-14
 2.40783728e-14
 2.40783728e-14
 2.40783728e-14
 2.40783728e-14
 2.40783728e-14
 2.40783728e-14
 2.40783728e-14
 2.40783728e-14
 2.40783728e-14
 2.40783728e-14
 2.40783728e-14
 2.40783728e-14
 2.40783728e-14
 2.40783728e-14
 2.40783728e-14
 2.40783728e-14
 2.40783728e-14
 2.40783728e-14
 2.40783728e-14
 2.40783728e-14
 2.40783728e-14
 2.40783728e-14
 2.40783728e-14
 2.40783728e-14
 2.40783728e-14
 2.40783728e-14
 2.40783728e-14
 2.40783728e-14
 2.40783728e-14
 2.40783728e-14
 2.40783728e-14
 2.40783728e-14
 2.40783728e-14
 1.52681087e-08
 1.52681087e-08
 1.52681087e-08
 1.52681087e-08
 4.20650374e-08
 4.20650374e-08
 4.20650374e-08
 4.20650374e-08
 4.20650374e-08
 4.20650374e-08
 4.20650374e-08
 4.20650374e-08
 4.20650374e-08
 4.20650374e-08
 4.20650374e-08
 4.20650374e-08
 4.20650374e-08
 4.20650374e-08
 4.81821262e-08
 4.81821262e-08
 4.81821262e-08
 4.81821262e-08
 4.81821262e-08
 4.81821262e-08
 4.81821262e-08
 4.81821262e-08
 4.81821262e-08
 4.81821262e-08
 5.01963911e-07
 5.01963911e-07
 5.01963911e-07
 5.01963911e-07
 5.01963911e-07
 5.01963911e-07
 5.01963911e-07
 5.01963911e-07
 5.01963911e-07
 5.01963911e-07
 5.01963911e-07
 5.01963911e-07
 5.01963911e-07
 4.59194633e-08
 4.44576757e-07
 4.44576757e-07
 4.44576757e-07
 4.44576757e-07
 4.44576757e-07
 4.44576757e-07
 4.44576757e-07
 2.06224796e-08
 2.06224796e-08
 4.90014440e-09
 4.90014440e-09
 2.25409711e-09
 2.25409711e-09
 2.25409711e-09
 2.25409711e-09
 1.15282139e-08
 1.15282139e-08
 1.15282139e-08
 1.15282139e-08
)
)
1
(
101
(
 2.12612012e-23
 4.89420908e-14
 4.89420908e-14
 4.89420908e-14
 4.89420908e-14
 4.89420908e-14
 4.89420908e-14
 4.89420908e-14
 4.89420908e-14
 4.89420908e-14
 4.89420908e-14
 4.89420908e-14
 4.89420908e-14
 4.89420908e-14
 4.89420908e-14
 4.89420908e-14
 4.89420908e-14
 4.89420908e-14
 4.89420908e-14
 4.89420908e-14
 4.89420908e-14
 4.89420908e-14
 4.89420908e-14
 4.89420908e-14
 4.89420908e-14
 4.89420908e-14
 4.89420908e-14
 4.89420908e-14
 4.89420908e-14
 4.89420908e-14
 4.89420908e-14
 4.89420908e-14
 4.89420908e-14
 4.89420908e-14
 4.89420908e-14
 4.89420908e-14
 4.89420908e-14
 4.89420908e-14
 4.89420908e-14
 4.89420908e-14
 1.52681087e-08
 1.52681087e-08
 1.52681087e-08
 1.52681087e-08
 1.52681087e-08
 4.20650374e-08
 4.20650374e-08
 4.20650374e-08
 4.20650374e-08
 4.20650374e-08
 4.20650374e-08
 4.20650374e-08
 4.20650374e-08
 4.20650374e-08
 4.20650374e-08
 4.20650374e-08
 4.20650374e-08
 4.20650374e-08
 4.20650374e-08
 4.81821262e-08
 4.81821262e-08
 4.81821262e-08
 4.81821262e-08
 4.81821262e-08
 4.81821262e-08
 4.81821262e-08
 4.81821262e-08
 4.81821262e-08
 4.81821262e-08
 5.01963911e-07
 5.01963911e-07
 5.01963911e-07
 5.01963911e-07
 5.01963911e-07
 5.01963911e-07
 5.01963911e-07
 5.01963911e-07
 5.01963911e-07
 5.01963911e-07
 5.01963911e-07
 5.01963911e-07
 5.01963911e-07
 4.59194633e-08
 4.59194633e-08
 4.44576757e-07
 4.44576757e-07
 4.44576757e-07
 4.44576757e-07
 4.44576757e-07
 2.06224796e-08
 2.06224796e-08
 2.06224796e-08
 4.90014440e-09
 4.90014440e-09
 2.25409711e-09
 2.25409711e-09
 2.25409711e-09
 2.25409711e-09
 2.25409711e-09
 1.15282139e-08
 1.15282139e-08
)
)
1
(
101
(
 6.69884899e-14
 6.69884899e-14
 6.69884899e-14
 6.69884899e-14
 6.69884899e-14
 6.69884899e-14
 6.69884899e-14
 6.69884899e-14
 6.69884899e-14
 6.69884899e-14
 6.69884899e-14
 6.69884899e-14
 6.69884899e-14
 6.69884899e-14
 6.69884899e-14
 6.69884899e-14
 6.69884899e-14
 6.69884899e-14
 6.69884899e-14
 6.69884899e-14
 6.69884899e-14
 6.69884899e-14
 6.69884899e-14
 6.69884899e-14
 6.69884899e-14
 6.69884899e-14
 6.69884899e-14
 6.69884899e-14
 6.69884899e-14
 6.69884899e-14
 6.69884899e-14
 6.69884899e-14
 6.69884899e-14
 6.69884899e-14
 6.69884899e-14
 6.69884899e-14
 6.69884899e-14
 6.69884899e-14
 6.69884899e-14
 6.69884899e-14
 1.52681087e-08
 1.52681087e-08
 1.52681087e-08
 1.52681087e-08
 1.52681087e-08
 1.52681087e-08
 4.20650374e-08
 4.20650374e-08
 4.20650374e-08
 4.20650374e-08
 4.20650374e-08
 4.20650374e-08
 4.20650374e-08
 4.20650374e-08
 4.20650374e-08
 4.20650374e-08
 4.20650374e-08
 4.20650374e-08
 4.20650374e-08
 4.20650374e-08
 4.20650374e-08
 4.81821262e-08
 4.81821262e-08
 4.81821262e-08
 4.81821262e-08
 4.81821262e-08
 4.81821262e-08
 4.81821262e-08
 4.81821262e-08
 4.81821262e-08
 4.81821262e-08
 5.01963911e-07
 5.01963911e-07
 5.01963911e-07
 5.01963911e-07
 5.01963911e-07
 5.01963911e-07
 5.01963911e-07
 5.01963911e-07
 5.01963911e-07
 5.01963911e-07
 5.01963911e-07
 5.01963911e-07
 4.59194633e-08
 4.59194633e-08
 4.59194633e-08
 4.44576757e-07
 4.44576757e-07
 4.44576757e-07
 4.44576757e-07
 2.06224796e-08
 2.06224796e-08
 2.06224796e-08
 4.90014440e-09
 4.90014440e-09
 2.25409711e-09
 2.25409711e-09
 2.25409711e-09
 2.25409711e-09
 2.25409711e-09
 2.25409711e-09
)
)
1
(
101
(
 8.49579602e-14
 8.49579602e-14
 8.49579602e-14
 8.49579602e-14
 8.49579602e-14
 8.49579602e-14
 8.49579602e-14
 8.49579602e-14
 8.49579602e-14
 8.49579602e-14
 8.49579602e-14
 8.49579602e-14
 8.49579602e-14
 8.49579602e-14
 8.49579602e-14
 8.49579602e-14
 8.49579602e-14
 8.49579602e-14
 8.49579602e-14
 8.49579602e-14
 8.49579602e-14
 8.49579602e-14
 8.49579602e-14
 8.49579602e-14
 8.49579602e-14
 8.49579602e-14
 8.49579602e-14
 8.49579602e-14
 8.49579602e-14
 8.49579602e-14
 8.49579602e-14
 8.49579602e-14
 8.49579602e-14
 8.49579602e-14
 8.49579602e-14
 8.49579602e-14
 8.49579602e-14
 8.49579602e-14
 8.49579602e-14
 1.52681087e-08
 1.52681087e-08
 1.52681087e-08
 1.52681087e-08
 1.52681087e-08
 1.52681087e-08
 1.52681087e-08
 1.52681087e-08
 1.52681087e-08
 4.20650374e-08
 4.20650374e-08
 4.20650374e-08
 4.20650374e-08
 4.20650374e-08
 4.20650374e-08
 4.20650374e-08
 4.20650374e-08
 4.20650374e-08
 4.20650374e-08
 4.20650374e-08
 4.20650374e-08
 4.20650374e-08
 4.20650374e-08
 4.81821262e-08
 4.81821262e-08
 4.81821262e-08
 4.81821262e-08
 4.81821262e-08
 4.81821262e-08
 4.81821262e-08
 4.81821262e-08
 4.81821262e-08
 4.81821262e-08
 5.01963911e-07
 5.01963911e-07
 5.01963911e-07
 5.01963911e-07
 5.01963911e-07
 5.01963911e-07
 5.01963911e-07
 5.01963911e-07
 5.01963911e-07
 5.01963911e-07
 5.01963911e-07
 5.01963911e-07
 4.59194633e-08
 4.59194633e-08
 4.59194633e-08
 4.59194633e-08
 3.28945704e-08
 3.28945704e-08
 3.28945704e-08
 2.06224796e-08
 2.06224796e-08
 2.06224796e-08
 4.90014440e-09
 4.90014440e-09
 2.25409711e-09
 2.25409711e-09