/*--------------------------------*- C++ -*----------------------------------*\
| =========                 |                                                 |
| \\      /  F ield        | OpenFOAM: The Open Source CFD Toolbox           |
|  \\    /   O peration    | Version:  7                                     |
|   \\  /    A nd          | Web:      http://www.OpenFOAM.com               |
|    \\/     M anipulation |                                                 |
\*---------------------------------------------------------------------------*/

FoamFile
{
    version     2.0;
    format      ascii;
    class       dictionary;
    object      Y_CH4_table;
}

Y_CH4_table
2
(
101
(
1
(
101
(
 6.95800325e-12
 6.95800325e-12
 6.95800325e-12
 6.95800325e-12
 6.95800325e-12
 6.95800325e-12
 6.95800325e-12
 6.95800325e-12
 6.95800325e-12
 6.95800325e-12
 6.95800325e-12
 6.95800325e-12
 6.95800325e-12
 6.95800325e-12
 6.95800325e-12
 6.95800325e-12
 6.95800325e-12
 6.95800325e-12
 6.95800325e-12
 6.95800325e-12
 6.95800325e-12
 6.95800325e-12
 6.95800325e-12
 6.95800325e-12
 6.95800325e-12
 6.95800325e-12
 6.95800325e-12
 6.95800325e-12
 6.95800325e-12
 6.95800325e-12
 6.95800325e-12
 6.95800325e-12
 6.95800325e-12
 6.95800325e-12
 6.95800325e-12
 6.95800325e-12
 6.95800325e-12
 6.95800325e-12
 6.95800325e-12
 6.95800325e-12
 6.95800325e-12
 6.95800325e-12
 6.95800325e-12
 6.95800325e-12
 6.95800325e-12
 7.81320131e-01
 7.81320131e-01
 8.28846514e-01
 8.28846514e-01
 8.28846514e-01
 8.28846514e-01
 8.28846514e-01
 8.28846514e-01
 8.28846514e-01
 8.28846514e-01
 8.28846514e-01
 8.28846514e-01
 8.28846514e-01
 8.28846514e-01
 8.28846514e-01
 8.28846514e-01
 8.28846514e-01
 8.28846514e-01
 8.69139774e-01
 8.69139774e-01
 8.69139774e-01
 8.69139774e-01
 8.69139774e-01
 8.69139774e-01
 8.69139774e-01
 8.69139774e-01
 8.69139774e-01
 8.69139774e-01
 8.69139774e-01
 8.69139774e-01
 9.24893109e-01
 9.24893109e-01
 9.24893109e-01
 9.24893109e-01
 9.24893109e-01
 9.24893109e-01
 9.24893109e-01
 9.47532926e-01
 9.47532926e-01
 9.47532926e-01
 9.47532926e-01
 9.47532926e-01
 9.47532926e-01
 9.69302859e-01
 9.69302859e-01
 9.69302859e-01
 9.69302859e-01
 9.69302859e-01
 9.69302859e-01
 9.69302859e-01
 9.92668545e-01
 9.92668545e-01
 9.92668545e-01
 9.92668545e-01
 9.92668545e-01
 9.99887128e-01
)
)
1
(
101
(
 4.19734910e-10
 4.19734910e-10
 4.19734910e-10
 4.19734910e-10
 4.19734910e-10
 4.19734910e-10
 4.19734910e-10
 4.19734910e-10
 4.19734910e-10
 4.19734910e-10
 4.19734910e-10
 4.19734910e-10
 4.19734910e-10
 4.19734910e-10
 4.19734910e-10
 4.19734910e-10
 4.19734910e-10
 4.19734910e-10
 4.19734910e-10
 4.19734910e-10
 4.19734910e-10
 4.19734910e-10
 4.19734910e-10
 4.19734910e-10
 4.19734910e-10
 4.19734910e-10
 4.19734910e-10
 4.19734910e-10
 4.19734910e-10
 4.19734910e-10
 4.19734910e-10
 4.19734910e-10
 4.19734910e-10
 4.19734910e-10
 4.19734910e-10
 4.19734910e-10
 4.19734910e-10
 4.19734910e-10
 4.19734910e-10
 4.19734910e-10
 4.19734910e-10
 4.19734910e-10
 4.19734910e-10
 4.19734910e-10
 4.19734910e-10
 7.81320131e-01
 7.81320131e-01
 7.81320131e-01
 8.28846514e-01
 8.28846514e-01
 8.28846514e-01
 8.28846514e-01
 8.28846514e-01
 8.28846514e-01
 8.28846514e-01
 8.28846514e-01
 8.28846514e-01
 8.28846514e-01
 8.28846514e-01
 8.28846514e-01
 8.28846514e-01
 8.28846514e-01
 8.28846514e-01
 8.28846514e-01
 8.28846514e-01
 8.69139774e-01
 8.69139774e-01
 8.69139774e-01
 8.69139774e-01
 8.69139774e-01
 8.69139774e-01
 8.69139774e-01
 8.69139774e-01
 8.69139774e-01
 8.69139774e-01
 8.69139774e-01
 8.69139774e-01
 9.24893109e-01
 9.24893109e-01
 9.24893109e-01
 9.24893109e-01
 9.24893109e-01
 9.24893109e-01
 9.47532926e-01
 9.47532926e-01
 9.47532926e-01
 9.47532926e-01
 9.47532926e-01
 9.47532926e-01
 9.47532926e-01
 9.69302859e-01
 9.69302859e-01
 9.69302859e-01
 9.69302859e-01
 9.69302859e-01
 9.69302859e-01
 9.79626775e-01
 9.92668545e-01
 9.92668545e-01
 9.92668545e-01
 9.95924289e-01
)
)
1
(
101
(
 9.15382425e-10
 9.15382425e-10
 9.15382425e-10
 9.15382425e-10
 9.15382425e-10
 9.15382425e-10
 9.15382425e-10
 9.15382425e-10
 9.15382425e-10
 9.15382425e-10
 9.15382425e-10
 9.15382425e-10
 9.15382425e-10
 9.15382425e-10
 9.15382425e-10
 9.15382425e-10
 9.15382425e-10
 9.15382425e-10
 9.15382425e-10
 9.15382425e-10
 9.15382425e-10
 9.15382425e-10
 9.15382425e-10
 9.15382425e-10
 9.15382425e-10
 9.15382425e-10
 9.15382425e-10
 9.15382425e-10
 9.15382425e-10
 9.15382425e-10
 9.15382425e-10
 9.15382425e-10
 9.15382425e-10
 9.15382425e-10
 9.15382425e-10
 9.15382425e-10
 9.15382425e-10
 9.15382425e-10
 9.15382425e-10
 9.15382425e-10
 9.15382425e-10
 9.15382425e-10
 9.15382425e-10
 9.15382425e-10
 7.81320131e-01
 7.81320131e-01
 7.81320131e-01
 7.81320131e-01
 7.81320131e-01
 7.81320131e-01
 8.28846514e-01
 8.28846514e-01
 8.28846514e-01
 8.28846514e-01
 8.28846514e-01
 8.28846514e-01
 8.28846514e-01
 8.28846514e-01
 8.28846514e-01
 8.28846514e-01
 8.28846514e-01
 8.28846514e-01
 8.28846514e-01
 8.28846514e-01
 8.28846514e-01
 8.28846514e-01
 8.69139774e-01
 8.69139774e-01
 8.69139774e-01
 8.69139774e-01
 8.69139774e-01
 8.69139774e-01
 8.69139774e-01
 8.69139774e-01
 8.69139774e-01
 8.69139774e-01
 8.69139774e-01
 8.69139774e-01
 9.24893109e-01
 9.24893109e-01
 9.24893109e-01
 9.24893109e-01
 9.24893109e-01
 9.24893109e-01
 9.24893109e-01
 9.47532926e-01
 9.47532926e-01
 9.47532926e-01
 9.47532926e-01
 9.47532926e-01
 9.47532926e-01
 9.69302859e-01
 9.69302859e-01
 9.69302859e-01
 9.69302859e-01
 9.69302859e-01
 9.69302859e-01
 9.79626775e-01
 9.79626775e-01
 9.87986630e-01
 9.87986630e-01
)
)
1
(
101
(
 9.97964009e-10
 9.97964009e-10
 9.97964009e-10
 9.97964009e-10
 9.97964009e-10
 9.97964009e-10
 9.97964009e-10
 9.97964009e-10
 9.97964009e-10
 9.97964009e-10
 9.97964009e-10
 9.97964009e-10
 9.97964009e-10
 9.97964009e-10
 9.97964009e-10
 9.97964009e-10
 9.97964009e-10
 9.97964009e-10
 9.97964009e-10
 9.97964009e-10
 9.97964009e-10
 9.97964009e-10
 9.97964009e-10
 9.97964009e-10
 9.97964009e-10
 9.97964009e-10
 9.97964009e-10
 9.97964009e-10
 9.97964009e-10
 9.97964009e-10
 9.97964009e-10
 9.97964009e-10
 9.97964009e-10
 9.97964009e-10
 9.97964009e-10
 9.97964009e-10
 9.97964009e-10
 9.97964009e-10
 9.97964009e-10
 9.97964009e-10
 9.97964009e-10
 9.97964009e-10
 9.97964009e-10
 9.97964009e-10
 7.16723429e-01
 7.81320131e-01
 7.81320131e-01
 7.81320131e-01
 7.81320131e-01
 7.81320131e-01
 7.81320131e-01
 8.28846514e-01
 8.28846514e-01
 8.28846514e-01
 8.28846514e-01
 8.28846514e-01
 8.28846514e-01
 8.28846514e-01
 8.28846514e-01
 8.28846514e-01
 8.28846514e-01
 8.28846514e-01
 8.28846514e-01
 8.28846514e-01
 8.28846514e-01
 8.28846514e-01
 8.28846514e-01
 8.69139774e-01
 8.69139774e-01
 8.69139774e-01
 8.69139774e-01
 8.69139774e-01
 8.69139774e-01
 8.69139774e-01
 8.69139774e-01
 8.69139774e-01
 8.69139774e-01
 8.69139774e-01
 8.69139774e-01
 9.00691470e-01
 9.24893109e-01
 9.24893109e-01
 9.24893109e-01
 9.24893109e-01
 9.24893109e-01
 9.24893109e-01
 9.47532926e-01
 9.47532926e-01
 9.47532926e-01
 9.47532926e-01
 9.47532926e-01
 9.47532926e-01
 9.47532926e-01
 9.69302859e-01
 9.69302859e-01
 9.69302859e-01
 9.69302859e-01
 9.69302859e-01
 9.79626775e-01
 9.83685637e-01
 9.83685637e-01
)
)
1
(
101
(
 1.48959836e-09
 1.48959836e-09
 1.48959836e-09
 1.48959836e-09
 1.48959836e-09
 1.48959836e-09
 1.48959836e-09
 1.48959836e-09
 1.48959836e-09
 1.48959836e-09
 1.48959836e-09
 1.48959836e-09
 1.48959836e-09
 1.48959836e-09
 1.48959836e-09
 1.48959836e-09
 1.48959836e-09
 1.48959836e-09
 1.48959836e-09
 1.48959836e-09
 1.48959836e-09
 1.48959836e-09
 1.48959836e-09
 1.48959836e-09
 1.48959836e-09
 1.48959836e-09
 1.48959836e-09
 1.48959836e-09
 1.48959836e-09
 1.48959836e-09
 1.48959836e-09
 1.48959836e-09
 1.48959836e-09
 1.48959836e-09
 1.48959836e-09
 1.48959836e-09
 1.48959836e-09
 1.48959836e-09
 1.48959836e-09
 1.48959836e-09
 1.48959836e-09
 1.48959836e-09
 1.48959836e-09
 1.48959836e-09
 7.16723429e-01
 7.16723429e-01
 7.16723429e-01
 7.81320131e-01
 7.81320131e-01
 7.81320131e-01
 7.81320131e-01
 7.81320131e-01
 7.81320131e-01
 8.28846514e-01
 8.28846514e-01
 8.28846514e-01
 8.28846514e-01
 8.28846514e-01
 8.28846514e-01
 8.28846514e-01
 8.28846514e-01
 8.28846514e-01
 8.28846514e-01
 8.28846514e-01
 8.28846514e-01
 8.28846514e-01
 8.28846514e-01
 8.28846514e-01
 8.69139774e-01
 8.69139774e-01
 8.69139774e-01
 8.69139774e-01
 8.69139774e-01
 8.69139774e-01
 8.69139774e-01
 8.69139774e-01
 8.69139774e-01
 8.69139774e-01
 8.69139774e-01
 8.69139774e-01
 9.00691470e-01
 9.24893109e-01
 9.24893109e-01
 9.24893109e-01
 9.24893109e-01
 9.24893109e-01
 9.24893109e-01
 9.24893109e-01
 9.47532926e-01
 9.47532926e-01
 9.47532926e-01
 9.47532926e-01
 9.47532926e-01
 9.47532926e-01
 9.57385010e-01
 9.69302859e-01
 9.69302859e-01
 9.69302859e-01
 9.74538475e-01
 9.74538475e-01
 9.83685637e-01
)
)
1
(
101
(
 1.46370748e-09
 1.46370748e-09
 1.46370748e-09
 1.46370748e-09
 1.46370748e-09
 1.46370748e-09
 1.46370748e-09
 1.46370748e-09
 1.46370748e-09
 1.46370748e-09
 1.46370748e-09
 1.46370748e-09
 1.46370748e-09
 1.46370748e-09
 1.46370748e-09
 1.46370748e-09
 1.46370748e-09
 1.46370748e-09
 1.46370748e-09
 1.46370748e-09
 1.46370748e-09
 1.46370748e-09
 1.46370748e-09
 1.46370748e-09
 1.46370748e-09
 1.46370748e-09
 1.46370748e-09
 1.46370748e-09
 1.46370748e-09
 1.46370748e-09
 1.46370748e-09
 1.46370748e-09
 1.46370748e-09
 1.46370748e-09
 1.46370748e-09
 1.46370748e-09
 1.46370748e-09
 1.46370748e-09
 1.46370748e-09
 1.46370748e-09
 1.46370748e-09
 1.46370748e-09
 4.10773603e-09
 7.16723429e-01
 7.16723429e-01
 7.16723429e-01
 7.16723429e-01
 7.16723429e-01
 7.81320131e-01
 7.81320131e-01
 7.81320131e-01
 7.81320131e-01
 7.81320131e-01
 7.81320131e-01
 8.28846514e-01
 8.28846514e-01
 8.28846514e-01
 8.28846514e-01
 8.28846514e-01
 8.28846514e-01
 8.28846514e-01
 8.28846514e-01
 8.28846514e-01
 8.28846514e-01
 8.28846514e-01
 8.28846514e-01
 8.28846514e-01
 8.28846514e-01
 8.28846514e-01
 8.28846514e-01
 8.69139774e-01
 8.69139774e-01
 8.69139774e-01
 8.69139774e-01
 8.69139774e-01
 8.69139774e-01
 8.69139774e-01
 8.69139774e-01
 8.69139774e-01
 8.69139774e-01
 8.69139774e-01
 9.00691470e-01
 9.00691470e-01
 9.24893109e-01
 9.24893109e-01
 9.24893109e-01
 9.24893109e-01
 9.24893109e-01
 9.24893109e-01
 9.47532926e-01
 9.47532926e-01
 9.47532926e-01
 9.47532926e-01
 9.47532926e-01
 9.47532926e-01
 9.57385010e-01
 9.57385010e-01
 9.66593115e-01
 9.66593115e-01
 9.74538475e-01
 9.74538475e-01
)
)
1
(
101
(
 2.46156996e-09
 2.46156996e-09
 2.46156996e-09
 2.46156996e-09
 2.46156996e-09
 2.46156996e-09
 2.46156996e-09
 2.46156996e-09
 2.46156996e-09
 2.46156996e-09
 2.46156996e-09
 2.46156996e-09
 2.46156996e-09
 2.46156996e-09
 2.46156996e-09
 2.46156996e-09
 2.46156996e-09
 2.46156996e-09
 2.46156996e-09
 2.46156996e-09
 2.46156996e-09
 2.46156996e-09
 2.46156996e-09
 2.46156996e-09
 2.46156996e-09
 2.46156996e-09
 2.46156996e-09
 2.46156996e-09
 2.46156996e-09
 2.46156996e-09
 2.46156996e-09
 2.46156996e-09
 2.46156996e-09
 4.10773603e-09
 4.10773603e-09
 4.10773603e-09
 4.10773603e-09
 4.10773603e-09
 4.10773603e-09
 4.10773603e-09
 4.10773603e-09
 4.10773603e-09
 4.10773603e-09
 7.16723429e-01
 7.16723429e-01
 7.16723429e-01
 7.16723429e-01
 7.16723429e-01
 7.16723429e-01
 7.81320131e-01
 7.81320131e-01
 7.81320131e-01
 7.81320131e-01
 7.81320131e-01
 7.81320131e-01
 7.81320131e-01
 8.28846514e-01
 8.28846514e-01
 8.28846514e-01
 8.28846514e-01
 8.28846514e-01
 8.28846514e-01
 8.28846514e-01
 8.28846514e-01
 8.28846514e-01
 8.28846514e-01
 8.28846514e-01
 8.28846514e-01
 8.28846514e-01
 8.28846514e-01
 8.28846514e-01
 8.69139774e-01
 8.69139774e-01
 8.69139774e-01
 8.69139774e-01
 8.69139774e-01
 8.69139774e-01
 8.69139774e-01
 8.69139774e-01
 8.69139774e-01
 8.69139774e-01
 8.69139774e-01
 9.00691470e-01
 9.00691470e-01
 9.24893109e-01
 9.24893109e-01
 9.24893109e-01
 9.24893109e-01
 9.24893109e-01
 9.24893109e-01
 9.24893109e-01
 9.47532926e-01
 9.47532926e-01
 9.47532926e-01
 9.47532926e-01
 9.47532926e-01
 9.57385010e-01
 9.57385010e-01
 9.66593115e-01
 9.66593115e-01
 9.74538475e-01
)
)
1
(
101
(
 2.24337695e-09
 2.24337695e-09
 2.24337695e-09
 2.24337695e-09
 2.24337695e-09
 2.24337695e-09
 2.24337695e-09
 2.24337695e-09
 2.24337695e-09
 2.24337695e-09
 2.24337695e-09
 2.24337695e-09
 2.24337695e-09
 2.24337695e-09
 2.24337695e-09
 2.24337695e-09
 2.24337695e-09
 2.24337695e-09
 2.24337695e-09
 2.24337695e-09
 2.24337695e-09
 2.24337695e-09
 2.24337695e-09
 2.24337695e-09
 2.24337695e-09
 2.24337695e-09
 4.10773603e-09
 4.10773603e-09
 4.10773603e-09
 4.10773603e-09
 4.10773603e-09
 4.10773603e-09
 4.10773603e-09
 4.10773603e-09
 4.10773603e-09
 4.10773603e-09
 4.10773603e-09
 4.10773603e-09
 4.10773603e-09
 4.10773603e-09
 4.10773603e-09
 4.10773603e-09
 4.10773603e-09
 7.16723429e-01
 7.16723429e-01
 7.16723429e-01
 7.16723429e-01
 7.16723429e-01
 7.16723429e-01
 7.16723429e-01
 7.81320131e-01
 7.81320131e-01
 7.81320131e-01
 7.81320131e-01
 7.81320131e-01
 7.81320131e-01
 7.81320131e-01
 8.28846514e-01
 8.28846514e-01
 8.28846514e-01
 8.28846514e-01
 8.28846514e-01
 8.28846514e-01
 8.28846514e-01
 8.28846514e-01
 8.28846514e-01
 8.28846514e-01
 8.28846514e-01
 8.28846514e-01
 8.28846514e-01
 8.28846514e-01
 8.28846514e-01
 8.69139774e-01
 8.69139774e-01
 8.69139774e-01
 8.69139774e-01
 8.69139774e-01
 8.69139774e-01
 8.69139774e-01
 8.69139774e-01
 8.69139774e-01
 8.69139774e-01
 8.69139774e-01
 9.00691470e-01
 9.00691470e-01
 9.00691470e-01
 9.24893109e-01
 9.24893109e-01
 9.24893109e-01
 9.24893109e-01
 9.24893109e-01
 9.24893109e-01
 9.34822128e-01
 9.47532926e-01
 9.47532926e-01
 9.47532926e-01
 9.52871959e-01
 9.52871959e-01
 9.52871959e-01
 9.66593115e-01
 9.66593115e-01
)
)
1
(
101
(
 2.34329457e-09
 2.34329457e-09
 2.34329457e-09
 2.34329457e-09
 2.34329457e-09
 2.34329457e-09
 2.34329457e-09
 2.34329457e-09
 2.34329457e-09
 2.34329457e-09
 2.34329457e-09
 2.34329457e-09
 2.34329457e-09
 2.34329457e-09
 2.34329457e-09
 2.34329457e-09
 2.34329457e-09
 2.34329457e-09
 2.34329457e-09
 4.10773603e-09
 4.10773603e-09
 4.10773603e-09
 4.10773603e-09
 4.10773603e-09
 4.10773603e-09
 4.10773603e-09
 4.10773603e-09
 4.10773603e-09
 4.10773603e-09
 4.10773603e-09
 4.10773603e-09
 4.10773603e-09
 4.10773603e-09
 4.10773603e-09
 4.10773603e-09
 4.10773603e-09
 4.10773603e-09
 4.10773603e-09
 4.10773603e-09
 4.10773603e-09
 4.10773603e-09
 4.10773603e-09
 7.16723429e-01
 7.16723429e-01
 7.16723429e-01
 7.16723429e-01
 7.16723429e-01
 7.16723429e-01
 7.16723429e-01
 7.16723429e-01
 7.16723429e-01
 7.81320131e-01
 7.81320131e-01
 7.81320131e-01
 7.81320131e-01
 7.81320131e-01
 7.81320131e-01
 7.81320131e-01
 7.81320131e-01
 8.28846514e-01
 8.28846514e-01
 8.28846514e-01
 8.28846514e-01
 8.28846514e-01
 8.28846514e-01
 8.28846514e-01
 8.28846514e-01
 8.28846514e-01
 8.28846514e-01
 8.28846514e-01
 8.28846514e-01
 8.28846514e-01
 8.28846514e-01
 8.69139774e-01
 8.69139774e-01
 8.69139774e-01
 8.69139774e-01
 8.69139774e-01
 8.69139774e-01
 8.69139774e-01
 8.69139774e-01
 8.69139774e-01
 8.69139774e-01
 8.69139774e-01
 9.00691470e-01
 9.00691470e-01
 9.00691470e-01
 9.24893109e-01
 9.24893109e-01
 9.24893109e-01
 9.24893109e-01
 9.24893109e-01
 9.24893109e-01
 9.34822128e-01
 9.34822128e-01
 9.43550266e-01
 9.43550266e-01
 9.52871959e-01
 9.52871959e-01
 9.52871959e-01
 9.52871959e-01
)
)
1
(
101
(
 4.28888028e-09
 4.28888028e-09
 4.28888028e-09
 4.28888028e-09
 4.28888028e-09
 4.28888028e-09
 4.28888028e-09
 4.28888028e-09
 4.28888028e-09
 4.28888028e-09
 4.28888028e-09
 4.28888028e-09
 4.28888028e-09
 4.28888028e-09
 4.10773603e-09
 4.10773603e-09
 4.10773603e-09
 4.10773603e-09
 4.10773603e-09
 4.10773603e-09
 4.10773603e-09
 4.10773603e-09
 4.10773603e-09
 4.10773603e-09
 4.10773603e-09
 4.10773603e-09
 4.10773603e-09
 4.10773603e-09
 4.10773603e-09
 4.10773603e-09
 4.10773603e-09
 4.10773603e-09
 4.10773603e-09
 4.10773603e-09
 4.10773603e-09
 4.10773603e-09
 4.10773603e-09
 4.10773603e-09
 4.10773603e-09
 4.10773603e-09
 4.10773603e-09
 4.10773603e-09
 7.16723429e-01
 7.16723429e-01
 7.16723429e-01
 7.16723429e-01
 7.16723429e-01
 7.16723429e-01
 7.16723429e-01
 7.16723429e-01
 7.16723429e-01
 7.16723429e-01
 7.81320131e-01
 7.81320131e-01
 7.81320131e-01
 7.81320131e-01
 7.81320131e-01
 7.81320131e-01
 7.81320131e-01
 7.81320131e-01
 8.28846514e-01
 8.28846514e-01
 8.28846514e-01
 8.28846514e-01
 8.28846514e-01
 8.28846514e-01
 8.28846514e-01
 8.28846514e-01
 8.28846514e-01
 8.28846514e-01
 8.28846514e-01
 8.28846514e-01
 8.28846514e-01
 8.28846514e-01
 8.28846514e-01
 8.69139774e-01
 8.69139774e-01
 8.69139774e-01
 8.69139774e-01
 8.69139774e-01
 8.69139774e-01
 8.69139774e-01
 8.69139774e-01
 8.69139774e-01
 8.69139774e-01
 9.00691470e-01
 9.00691470e-01
 9.00691470e-01
 9.00691470e-01
 9.24893109e-01
 9.24893109e-01
 9.24893109e-01
 9.24893109e-01
 9.24893109e-01
 9.34822128e-01
 9.34822128e-01
 9.43550266e-01
 9.43550266e-01
 9.52871959e-01
 9.52871959e-01
 9.52871959e-01
)
)
1
(
101
(
 3.23037916e-09
 3.23037916e-09
 3.23037916e-09
 3.23037916e-09
 3.23037916e-09
 3.23037916e-09
 3.23037916e-09
 3.23037916e-09
 3.23037916e-09
 4.10773603e-09
 4.10773603e-09
 4.10773603e-09
 4.10773603e-09
 4.10773603e-09
 4.10773603e-09
 4.10773603e-09
 4.10773603e-09
 4.10773603e-09
 4.10773603e-09
 4.10773603e-09
 4.10773603e-09
 4.10773603e-09
 4.10773603e-09
 4.10773603e-09
 4.10773603e-09
 4.10773603e-09
 4.10773603e-09
 4.10773603e-09
 4.10773603e-09
 4.10773603e-09
 4.10773603e-09
 4.10773603e-09
 4.10773603e-09
 4.10773603e-09
 4.10773603e-09
 4.10773603e-09
 4.10773603e-09
 4.10773603e-09
 4.10773603e-09
 4.10773603e-09
 4.10773603e-09
 4.10773603e-09
 7.16723429e-01
 7.16723429e-01
 7.16723429e-01
 7.16723429e-01
 7.16723429e-01
 7.16723429e-01
 7.16723429e-01
 7.16723429e-01
 7.16723429e-01
 7.16723429e-01
 7.16723429e-01
 7.16723429e-01
 7.81320131e-01
 7.81320131e-01
 7.81320131e-01
 7.81320131e-01
 7.81320131e-01
 7.81320131e-01
 7.81320131e-01
 7.81320131e-01
 8.28846514e-01
 8.28846514e-01
 8.28846514e-01
 8.28846514e-01
 8.28846514e-01
 8.28846514e-01
 8.28846514e-01
 8.28846514e-01
 8.28846514e-01
 8.28846514e-01
 8.28846514e-01
 8.28846514e-01
 8.28846514e-01
 8.28846514e-01
 8.69139774e-01
 8.69139774e-01
 8.69139774e-01
 8.69139774e-01
 8.69139774e-01
 8.69139774e-01
 8.69139774e-01
 8.69139774e-01
 8.69139774e-01
 8.69139774e-01
 9.00691470e-01
 9.00691470e-01
 9.00691470e-01
 9.00691470e-01
 9.12539990e-01
 9.24893109e-01
 9.24893109e-01
 9.24893109e-01
 9.24893109e-01
 9.34822128e-01
 9.34822128e-01
 9.43550266e-01
 9.43550266e-01
 9.52871959e-01
 9.52871959e-01
)
)
1
(
101
(
 3.59113148e-09
 3.59113148e-09
 3.59113148e-09
 3.59113148e-09
 3.59113148e-09
 3.59113148e-09
 4.10773603e-09
 4.10773603e-09
 4.10773603e-09
 4.10773603e-09
 4.10773603e-09
 4.10773603e-09
 4.10773603e-09
 4.10773603e-09
 4.10773603e-09
 4.10773603e-09
 4.10773603e-09
 4.10773603e-09
 4.10773603e-09
 4.10773603e-09
 4.10773603e-09
 4.10773603e-09
 4.10773603e-09
 4.10773603e-09
 4.10773603e-09
 4.10773603e-09
 4.10773603e-09
 4.10773603e-09
 4.10773603e-09
 4.10773603e-09
 4.10773603e-09
 4.10773603e-09
 4.10773603e-09
 4.10773603e-09
 4.10773603e-09
 4.10773603e-09
 4.10773603e-09
 4.10773603e-09
 4.10773603e-09
 4.10773603e-09
 4.10773603e-09
 4.10773603e-09
 7.16723429e-01
 7.16723429e-01
 7.16723429e-01
 7.16723429e-01
 7.16723429e-01
 7.16723429e-01
 7.16723429e-01
 7.16723429e-01
 7.16723429e-01
 7.16723429e-01
 7.16723429e-01
 7.16723429e-01
 7.16723429e-01
 7.81320131e-01
 7.81320131e-01
 7.81320131e-01
 7.81320131e-01
 7.81320131e-01
 7.81320131e-01
 7.81320131e-01
 7.81320131e-01
 8.28846514e-01
 8.28846514e-01
 8.28846514e-01
 8.28846514e-01
 8.28846514e-01
 8.28846514e-01
 8.28846514e-01
 8.28846514e-01
 8.28846514e-01
 8.28846514e-01
 8.28846514e-01
 8.28846514e-01
 8.28846514e-01
 8.28846514e-01
 8.69139774e-01
 8.69139774e-01
 8.69139774e-01
 8.69139774e-01
 8.69139774e-01
 8.69139774e-01
 8.69139774e-01
 8.69139774e-01
 8.69139774e-01
 8.69139774e-01
 9.00691470e-01
 9.00691470e-01
 9.00691470e-01
 9.00691470e-01
 9.12539990e-01
 9.12539990e-01
 9.21742939e-01
 9.21742939e-01
 9.21742939e-01
 9.34822128e-01
 9.34822128e-01
 9.43550266e-01
 9.43550266e-01
 9.52871959e-01
)
)
1
(
101
(
 4.35076593e-09
 4.35076593e-09
 4.35076593e-09
 4.10773603e-09
 4.10773603e-09
 4.10773603e-09
 4.10773603e-09
 4.10773603e-09
 4.10773603e-09
 4.10773603e-09
 4.10773603e-09
 4.10773603e-09
 4.10773603e-09
 4.10773603e-09
 4.10773603e-09
 4.10773603e-09
 4.10773603e-09
 4.10773603e-09
 4.10773603e-09
 4.10773603e-09
 4.10773603e-09
 4.10773603e-09
 4.10773603e-09
 4.10773603e-09
 4.10773603e-09
 4.10773603e-09
 4.10773603e-09
 4.10773603e-09
 4.10773603e-09
 4.10773603e-09
 4.10773603e-09
 4.10773603e-09
 4.10773603e-09
 4.10773603e-09
 4.10773603e-09
 4.10773603e-09
 4.10773603e-09
 4.10773603e-09
 4.10773603e-09
 4.10773603e-09
 4.10773603e-09
 6.52257359e-01
 7.16723429e-01
 7.16723429e-01
 7.16723429e-01
 7.16723429e-01
 7.16723429e-01
 7.16723429e-01
 7.16723429e-01
 7.16723429e-01
 7.16723429e-01
 7.16723429e-01
 7.16723429e-01
 7.16723429e-01
 7.16723429e-01
 7.16723429e-01
 7.81320131e-01
 7.81320131e-01
 7.81320131e-01
 7.81320131e-01
 7.81320131e-01
 7.81320131e-01
 7.81320131e-01
 7.81320131e-01
 7.81320131e-01
 8.28846514e-01
 8.28846514e-01
 8.28846514e-01
 8.28846514e-01
 8.28846514e-01
 8.28846514e-01
 8.28846514e-01
 8.28846514e-01
 8.28846514e-01
 8.28846514e-01
 8.28846514e-01
 8.28846514e-01
 8.28846514e-01
 8.69139774e-01
 8.69139774e-01
 8.69139774e-01
 8.69139774e-01
 8.69139774e-01
 8.69139774e-01
 8.69139774e-01
 8.69139774e-01
 8.69139774e-01
 8.69139774e-01
 9.00691470e-01
 9.00691470e-01
 9.00691470e-01
 9.00691470e-01
 9.12539990e-01
 9.12539990e-01
 9.21742939e-01
 9.21742939e-01
 9.21742939e-01
 9.21742939e-01
 9.34822128e-01
 9.43550266e-01
 9.43550266e-01
)
)
1
(
101
(
 1.30969029e-09
 1.30969029e-09
 4.10773603e-09
 4.10773603e-09
 4.10773603e-09
 4.10773603e-09
 4.10773603e-09
 4.10773603e-09
 4.10773603e-09
 4.10773603e-09
 4.10773603e-09
 4.10773603e-09
 4.10773603e-09
 4.10773603e-09
 4.10773603e-09
 4.10773603e-09
 4.10773603e-09
 4.10773603e-09
 4.10773603e-09
 4.10773603e-09
 4.10773603e-09
 4.10773603e-09
 4.10773603e-09
 4.10773603e-09
 4.10773603e-09
 4.10773603e-09
 4.10773603e-09
 4.10773603e-09
 4.10773603e-09
 4.10773603e-09
 4.10773603e-09
 4.10773603e-09
 4.10773603e-09
 4.10773603e-09
 4.10773603e-09
 4.10773603e-09
 4.10773603e-09
 4.10773603e-09
 4.10773603e-09
 4.10773603e-09
 4.10773603e-09
 6.52257359e-01
 6.52257359e-01
 7.16723429e-01
 7.16723429e-01
 7.16723429e-01
 7.16723429e-01
 7.16723429e-01
 7.16723429e-01
 7.16723429e-01
 7.16723429e-01
 7.16723429e-01
 7.16723429e-01
 7.16723429e-01
 7.16723429e-01
 7.16723429e-01
 7.16723429e-01
 7.81320131e-01
 7.81320131e-01
 7.81320131e-01
 7.81320131e-01
 7.81320131e-01
 7.81320131e-01
 7.81320131e-01
 7.81320131e-01
 7.81320131e-01
 8.28846514e-01
 8.28846514e-01
 8.28846514e-01
 8.28846514e-01
 8.28846514e-01
 8.28846514e-01
 8.28846514e-01
 8.28846514e-01
 8.28846514e-01
 8.28846514e-01
 8.28846514e-01
 8.28846514e-01
 8.28846514e-01
 8.28846514e-01
 8.69139774e-01
 8.69139774e-01
 8.69139774e-01
 8.69139774e-01
 8.69139774e-01
 8.69139774e-01
 8.69139774e-01
 8.69139774e-01
 8.87876824e-01
 9.00691470e-01
 9.00691470e-01
 9.00691470e-01
 9.07322940e-01
 9.07322940e-01
 9.07322940e-01
 9.21742939e-01
 9.21742939e-01
 9.21742939e-01
 9.21742939e-01
 9.21742939e-01
 9.43550266e-01
)
)
1
(
101
(
 5.26771842e-17
 4.10773603e-09
 4.10773603e-09
 4.10773603e-09
 4.10773603e-09
 4.10773603e-09
 4.10773603e-09
 4.10773603e-09
 4.10773603e-09
 4.10773603e-09
 4.10773603e-09
 4.10773603e-09
 4.10773603e-09
 4.10773603e-09
 4.10773603e-09
 4.10773603e-09
 4.10773603e-09
 4.10773603e-09
 4.10773603e-09
 4.10773603e-09
 4.10773603e-09
 4.10773603e-09
 4.10773603e-09
 4.10773603e-09
 4.10773603e-09
 4.10773603e-09
 4.10773603e-09
 4.10773603e-09
 4.10773603e-09
 4.10773603e-09
 4.10773603e-09
 4.10773603e-09
 4.10773603e-09
 4.10773603e-09
 4.10773603e-09
 4.10773603e-09
 4.10773603e-09
 4.10773603e-09
 4.10773603e-09
 4.10773603e-09
 6.52257359e-01
 6.52257359e-01
 6.52257359e-01
 6.52257359e-01
 7.16723429e-01
 7.16723429e-01
 7.16723429e-01
 7.16723429e-01
 7.16723429e-01
 7.16723429e-01
 7.16723429e-01
 7.16723429e-01
 7.16723429e-01
 7.16723429e-01
 7.16723429e-01
 7.16723429e-01
 7.16723429e-01
 7.16723429e-01
 7.81320131e-01
 7.81320131e-01
 7.81320131e-01
 7.81320131e-01
 7.81320131e-01
 7.81320131e-01
 7.81320131e-01
 7.81320131e-01
 7.81320131e-01
 7.81320131e-01
 8.28846514e-01
 8.28846514e-01
 8.28846514e-01
 8.28846514e-01
 8.28846514e-01
 8.28846514e-01
 8.28846514e-01
 8.28846514e-01
 8.28846514e-01
 8.28846514e-01
 8.28846514e-01
 8.28846514e-01
 8.28846514e-01
 8.59040649e-01
 8.69139774e-01
 8.69139774e-01
 8.69139774e-01
 8.69139774e-01
 8.69139774e-01
 8.69139774e-01
 8.69139774e-01
 8.87876824e-01
 8.87876824e-01
 8.97593611e-01
 8.97593611e-01
 9.07322940e-01
 9.07322940e-01
 9.07322940e-01
 9.07322940e-01
 9.21742939e-01
 9.21742939e-01
 9.21742939e-01
 9.21742939e-01
)
)
1
(
101
(
 5.26771842e-17
 4.81987273e-09
 4.81987273e-09
 4.81987273e-09
 4.81987273e-09
 4.81987273e-09
 4.81987273e-09
 4.81987273e-09
 4.81987273e-09
 4.81987273e-09
 4.81987273e-09
 4.81987273e-09
 4.81987273e-09
 4.81987273e-09
 4.81987273e-09
 4.81987273e-09
 4.81987273e-09
 4.81987273e-09
 4.81987273e-09
 4.81987273e-09
 4.81987273e-09
 4.81987273e-09
 4.81987273e-09
 4.81987273e-09
 4.81987273e-09
 4.81987273e-09
 4.81987273e-09
 4.81987273e-09
 4.81987273e-09
 4.81987273e-09
 4.81987273e-09
 4.81987273e-09
 4.81987273e-09
 4.81987273e-09
 4.81987273e-09
 4.81987273e-09
 4.81987273e-09
 4.81987273e-09
 4.81987273e-09
 4.81987273e-09
 6.52257359e-01
 6.52257359e-01
 6.52257359e-01
 6.52257359e-01
 6.52257359e-01
 7.16723429e-01
 7.16723429e-01
 7.16723429e-01
 7.16723429e-01
 7.16723429e-01
 7.16723429e-01
 7.16723429e-01
 7.16723429e-01
 7.16723429e-01
 7.16723429e-01
 7.16723429e-01
 7.16723429e-01
 7.16723429e-01
 7.16723429e-01
 7.81320131e-01
 7.81320131e-01
 7.81320131e-01
 7.81320131e-01
 7.81320131e-01
 7.81320131e-01
 7.81320131e-01
 7.81320131e-01
 7.81320131e-01
 7.81320131e-01
 8.28846514e-01
 8.28846514e-01
 8.28846514e-01
 8.28846514e-01
 8.28846514e-01
 8.28846514e-01
 8.28846514e-01
 8.28846514e-01
 8.28846514e-01
 8.28846514e-01
 8.28846514e-01
 8.28846514e-01
 8.28846514e-01
 8.59040649e-01
 8.59040649e-01
 8.69139774e-01
 8.69139774e-01
 8.69139774e-01
 8.69139774e-01
 8.69139774e-01
 8.87876824e-01
 8.87876824e-01
 8.87876824e-01
 8.97593611e-01
 8.97593611e-01
 9.07322940e-01
 9.07322940e-01
 9.07322940e-01
 9.07322940e-01
 9.07322940e-01
 9.21742939e-01
 9.21742939e-01
)
)
1
(
101
(
 5.97329916e-09
 5.97329916e-09
 5.97329916e-09
 5.97329916e-09
 5.97329916e-09
 5.97329916e-09
 5.97329916e-09
 5.97329916e-09
 5.97329916e-09
 5.97329916e-09
 5.97329916e-09
 5.97329916e-09
 5.97329916e-09
 5.97329916e-09
 5.97329916e-09
 5.97329916e-09
 5.97329916e-09
 5.97329916e-09
 5.97329916e-09
 5.97329916e-09
 5.97329916e-09
 5.97329916e-09
 5.97329916e-09
 5.97329916e-09
 5.97329916e-09
 5.97329916e-09
 5.97329916e-09
 5.97329916e-09
 5.97329916e-09
 5.97329916e-09
 5.97329916e-09
 5.97329916e-09
 5.97329916e-09
 5.97329916e-09
 5.97329916e-09
 5.97329916e-09
 5.97329916e-09
 5.97329916e-09
 5.97329916e-09
 5.97329916e-09
 6.52257359e-01
 6.52257359e-01
 6.52257359e-01
 6.52257359e-01
 6.52257359e-01
 6.52257359e-01
 7.16723429e-01
 7.16723429e-01
 7.16723429e-01
 7.16723429e-01
 7.16723429e-01
 7.16723429e-01
 7.16723429e-01
 7.16723429e-01
 7.16723429e-01
 7.16723429e-01
 7.16723429e-01
 7.16723429e-01
 7.16723429e-01
 7.16723429e-01
 7.16723429e-01
 7.81320131e-01
 7.81320131e-01
 7.81320131e-01
 7.81320131e-01
 7.81320131e-01
 7.81320131e-01
 7.81320131e-01
 7.81320131e-01
 7.81320131e-01
 7.81320131e-01
 8.28846514e-01
 8.28846514e-01
 8.28846514e-01
 8.28846514e-01
 8.28846514e-01
 8.28846514e-01
 8.28846514e-01
 8.28846514e-01
 8.28846514e-01
 8.28846514e-01
 8.28846514e-01
 8.28846514e-01
 8.59040649e-01
 8.59040649e-01
 8.59040649e-01
 8.69139774e-01
 8.69139774e-01
 8.69139774e-01
 8.69139774e-01
 8.87876824e-01
 8.87876824e-01
 8.87876824e-01
 8.97593611e-01
 8.97593611e-01
 9.07322940e-01
 9.07322940e-01
 9.07322940e-01
 9.07322940e-01
 9.07322940e-01
 9.07322940e-01
)
)
1
(
101
(
 6.85249485e-09
 6.85249485e-09
 6.85249485e-09
 6.85249485e-09
 6.85249485e-09
 6.85249485e-09
 6.85249485e-09
 6.85249485e-09
 6.85249485e-09
 6.85249485e-09
 6.85249485e-09
 6.85249485e-09
 6.85249485e-09
 6.85249485e-09
 6.85249485e-09
 6.85249485e-09
 6.85249485e-09
 6.85249485e-09
 6.85249485e-09
 6.85249485e-09
 6.85249485e-09
 6.85249485e-09
 6.85249485e-09
 6.85249485e-09
 6.85249485e-09
 6.85249485e-09
 6.85249485e-09
 6.85249485e-09
 6.85249485e-09
 6.85249485e-09
 6.85249485e-09
 6.85249485e-09
 6.85249485e-09
 6.85249485e-09
 6.85249485e-09
 6.85249485e-09
 6.85249485e-09
 6.85249485e-09
 6.85249485e-09
 6.52257359e-01
 6.52257359e-01
 6.52257359e-01
 6.52257359e-01
 6.52257359e-01
 6.52257359e-01
 6.52257359e-01
 6.52257359e-01
 6.52257359e-01
 7.16723429e-01
 7.16723429e-01
 7.16723429e-01
 7.16723429e-01
 7.16723429e-01
 7.16723429e-01
 7.16723429e-01
 7.16723429e-01
 7.16723429e-01
 7.16723429e-01
 7.16723429e-01
 7.16723429e-01
 7.16723429e-01
 7.16723429e-01
 7.81320131e-01
 7.81320131e-01
 7.81320131e-01
 7.81320131e-01
 7.81320131e-01
 7.81320131e-01
 7.81320131e-01
 7.81320131e-01
 7.81320131e-01
 7.81320131e-01
 8.28846514e-01
 8.28846514e-01
 8.28846514e-01
 8.28846514e-01
 8.28846514e-01
 8.28846514e-01
 8.28846514e-01
 8.28846514e-01
 8.28846514e-01
 8.28846514e-01
 8.28846514e-01
 8.28846514e-01
 8.59040649e-01
 8.59040649e-01
 8.59040649e-01
 8.59040649e-01
 8.68367452e-01
 8.68367452e-01
 8.68367452e-01
 8.87876824e-01
 8.87876824e-01
 8.87876824e-01
 8.97593611e-01
 8.97593611e-01
 9.07322940e-01
 9.07322940e-01
 9.07322940e-01