/*--------------------------------*- C++ -*----------------------------------*\
| =========                 |                                                 |
| \\      /  F ield        | OpenFOAM: The Open Source CFD Toolbox           |
|  \\    /   O peration    | Version:  7                                     |
|   \\  /    A nd          | Web:      http://www.OpenFOAM.com               |
|    \\/     M anipulation |                                                 |
\*---------------------------------------------------------------------------*/

FoamFile
{
    version     2.0;
    format      ascii;
    class       dictionary;
    object      Y_CH2CHO_table;
}

Y_CH2CHO_table
2
(
101
(
1
(
101
(
 4.85945246e-21
 4.85945246e-21
 4.85945246e-21
 4.85945246e-21
 4.85945246e-21
 4.85945246e-21
 4.85945246e-21
 4.85945246e-21
 4.85945246e-21
 4.85945246e-21
 4.85945246e-21
 4.85945246e-21
 4.85945246e-21
 4.85945246e-21
 4.85945246e-21
 4.85945246e-21
 4.85945246e-21
 4.85945246e-21
 4.85945246e-21
 4.85945246e-21
 4.85945246e-21
 4.85945246e-21
 4.85945246e-21
 4.85945246e-21
 4.85945246e-21
 4.85945246e-21
 4.85945246e-21
 4.85945246e-21
 4.85945246e-21
 4.85945246e-21
 4.85945246e-21
 4.85945246e-21
 4.85945246e-21
 4.85945246e-21
 4.85945246e-21
 4.85945246e-21
 4.85945246e-21
 4.85945246e-21
 4.85945246e-21
 4.85945246e-21
 4.85945246e-21
 4.85945246e-21
 4.85945246e-21
 4.85945246e-21
 4.85945246e-21
 2.02051894e-08
 2.02051894e-08
 4.08970980e-08
 4.08970980e-08
 4.08970980e-08
 4.08970980e-08
 4.08970980e-08
 4.08970980e-08
 4.08970980e-08
 4.08970980e-08
 4.08970980e-08
 4.08970980e-08
 4.08970980e-08
 4.08970980e-08
 4.08970980e-08
 4.08970980e-08
 4.08970980e-08
 4.08970980e-08
 2.79974883e-08
 2.79974883e-08
 2.79974883e-08
 2.79974883e-08
 2.79974883e-08
 2.79974883e-08
 2.79974883e-08
 2.79974883e-08
 2.79974883e-08
 2.79974883e-08
 2.79974883e-08
 2.79974883e-08
 5.16319715e-09
 5.16319715e-09
 5.16319715e-09
 5.16319715e-09
 5.16319715e-09
 5.16319715e-09
 5.16319715e-09
 4.27269208e-09
 4.27269208e-09
 4.27269208e-09
 4.27269208e-09
 4.27269208e-09
 4.27269208e-09
 2.23922793e-09
 2.23922793e-09
 2.23922793e-09
 2.23922793e-09
 2.23922793e-09
 2.23922793e-09
 2.23922793e-09
 2.77327105e-10
 2.77327105e-10
 2.77327105e-10
 2.77327105e-10
 2.77327105e-10
 1.95335080e-12
)
)
1
(
101
(
 1.37845092e-18
 1.37845092e-18
 1.37845092e-18
 1.37845092e-18
 1.37845092e-18
 1.37845092e-18
 1.37845092e-18
 1.37845092e-18
 1.37845092e-18
 1.37845092e-18
 1.37845092e-18
 1.37845092e-18
 1.37845092e-18
 1.37845092e-18
 1.37845092e-18
 1.37845092e-18
 1.37845092e-18
 1.37845092e-18
 1.37845092e-18
 1.37845092e-18
 1.37845092e-18
 1.37845092e-18
 1.37845092e-18
 1.37845092e-18
 1.37845092e-18
 1.37845092e-18
 1.37845092e-18
 1.37845092e-18
 1.37845092e-18
 1.37845092e-18
 1.37845092e-18
 1.37845092e-18
 1.37845092e-18
 1.37845092e-18
 1.37845092e-18
 1.37845092e-18
 1.37845092e-18
 1.37845092e-18
 1.37845092e-18
 1.37845092e-18
 1.37845092e-18
 1.37845092e-18
 1.37845092e-18
 1.37845092e-18
 1.37845092e-18
 2.02051894e-08
 2.02051894e-08
 2.02051894e-08
 4.08970980e-08
 4.08970980e-08
 4.08970980e-08
 4.08970980e-08
 4.08970980e-08
 4.08970980e-08
 4.08970980e-08
 4.08970980e-08
 4.08970980e-08
 4.08970980e-08
 4.08970980e-08
 4.08970980e-08
 4.08970980e-08
 4.08970980e-08
 4.08970980e-08
 4.08970980e-08
 4.08970980e-08
 2.79974883e-08
 2.79974883e-08
 2.79974883e-08
 2.79974883e-08
 2.79974883e-08
 2.79974883e-08
 2.79974883e-08
 2.79974883e-08
 2.79974883e-08
 2.79974883e-08
 2.79974883e-08
 2.79974883e-08
 5.16319715e-09
 5.16319715e-09
 5.16319715e-09
 5.16319715e-09
 5.16319715e-09
 5.16319715e-09
 4.27269208e-09
 4.27269208e-09
 4.27269208e-09
 4.27269208e-09
 4.27269208e-09
 4.27269208e-09
 4.27269208e-09
 2.23922793e-09
 2.23922793e-09
 2.23922793e-09
 2.23922793e-09
 2.23922793e-09
 2.23922793e-09
 9.82223981e-10
 2.77327105e-10
 2.77327105e-10
 2.77327105e-10
 8.47255377e-11
)
)
1
(
101
(
 1.03808569e-17
 1.03808569e-17
 1.03808569e-17
 1.03808569e-17
 1.03808569e-17
 1.03808569e-17
 1.03808569e-17
 1.03808569e-17
 1.03808569e-17
 1.03808569e-17
 1.03808569e-17
 1.03808569e-17
 1.03808569e-17
 1.03808569e-17
 1.03808569e-17
 1.03808569e-17
 1.03808569e-17
 1.03808569e-17
 1.03808569e-17
 1.03808569e-17
 1.03808569e-17
 1.03808569e-17
 1.03808569e-17
 1.03808569e-17
 1.03808569e-17
 1.03808569e-17
 1.03808569e-17
 1.03808569e-17
 1.03808569e-17
 1.03808569e-17
 1.03808569e-17
 1.03808569e-17
 1.03808569e-17
 1.03808569e-17
 1.03808569e-17
 1.03808569e-17
 1.03808569e-17
 1.03808569e-17
 1.03808569e-17
 1.03808569e-17
 1.03808569e-17
 1.03808569e-17
 1.03808569e-17
 1.03808569e-17
 2.02051894e-08
 2.02051894e-08
 2.02051894e-08
 2.02051894e-08
 2.02051894e-08
 2.02051894e-08
 4.08970980e-08
 4.08970980e-08
 4.08970980e-08
 4.08970980e-08
 4.08970980e-08
 4.08970980e-08
 4.08970980e-08
 4.08970980e-08
 4.08970980e-08
 4.08970980e-08
 4.08970980e-08
 4.08970980e-08
 4.08970980e-08
 4.08970980e-08
 4.08970980e-08
 4.08970980e-08
 2.79974883e-08
 2.79974883e-08
 2.79974883e-08
 2.79974883e-08
 2.79974883e-08
 2.79974883e-08
 2.79974883e-08
 2.79974883e-08
 2.79974883e-08
 2.79974883e-08
 2.79974883e-08
 2.79974883e-08
 5.16319715e-09
 5.16319715e-09
 5.16319715e-09
 5.16319715e-09
 5.16319715e-09
 5.16319715e-09
 5.16319715e-09
 4.27269208e-09
 4.27269208e-09
 4.27269208e-09
 4.27269208e-09
 4.27269208e-09
 4.27269208e-09
 2.23922793e-09
 2.23922793e-09
 2.23922793e-09
 2.23922793e-09
 2.23922793e-09
 2.23922793e-09
 9.82223981e-10
 9.82223981e-10
 3.92334865e-10
 3.92334865e-10
)
)
1
(
101
(
 2.55866078e-17
 2.55866078e-17
 2.55866078e-17
 2.55866078e-17
 2.55866078e-17
 2.55866078e-17
 2.55866078e-17
 2.55866078e-17
 2.55866078e-17
 2.55866078e-17
 2.55866078e-17
 2.55866078e-17
 2.55866078e-17
 2.55866078e-17
 2.55866078e-17
 2.55866078e-17
 2.55866078e-17
 2.55866078e-17
 2.55866078e-17
 2.55866078e-17
 2.55866078e-17
 2.55866078e-17
 2.55866078e-17
 2.55866078e-17
 2.55866078e-17
 2.55866078e-17
 2.55866078e-17
 2.55866078e-17
 2.55866078e-17
 2.55866078e-17
 2.55866078e-17
 2.55866078e-17
 2.55866078e-17
 2.55866078e-17
 2.55866078e-17
 2.55866078e-17
 2.55866078e-17
 2.55866078e-17
 2.55866078e-17
 2.55866078e-17
 2.55866078e-17
 2.55866078e-17
 2.55866078e-17
 2.55866078e-17
 1.92807942e-08
 2.02051894e-08
 2.02051894e-08
 2.02051894e-08
 2.02051894e-08
 2.02051894e-08
 2.02051894e-08
 4.08970980e-08
 4.08970980e-08
 4.08970980e-08
 4.08970980e-08
 4.08970980e-08
 4.08970980e-08
 4.08970980e-08
 4.08970980e-08
 4.08970980e-08
 4.08970980e-08
 4.08970980e-08
 4.08970980e-08
 4.08970980e-08
 4.08970980e-08
 4.08970980e-08
 4.08970980e-08
 2.79974883e-08
 2.79974883e-08
 2.79974883e-08
 2.79974883e-08
 2.79974883e-08
 2.79974883e-08
 2.79974883e-08
 2.79974883e-08
 2.79974883e-08
 2.79974883e-08
 2.79974883e-08
 2.79974883e-08
 7.89720983e-09
 5.16319715e-09
 5.16319715e-09
 5.16319715e-09
 5.16319715e-09
 5.16319715e-09
 5.16319715e-09
 4.27269208e-09
 4.27269208e-09
 4.27269208e-09
 4.27269208e-09
 4.27269208e-09
 4.27269208e-09
 4.27269208e-09
 2.23922793e-09
 2.23922793e-09
 2.23922793e-09
 2.23922793e-09
 2.23922793e-09
 9.82223981e-10
 1.13653499e-10
 1.13653499e-10
)
)
1
(
101
(
 7.48351104e-17
 7.48351104e-17
 7.48351104e-17
 7.48351104e-17
 7.48351104e-17
 7.48351104e-17
 7.48351104e-17
 7.48351104e-17
 7.48351104e-17
 7.48351104e-17
 7.48351104e-17
 7.48351104e-17
 7.48351104e-17
 7.48351104e-17
 7.48351104e-17
 7.48351104e-17
 7.48351104e-17
 7.48351104e-17
 7.48351104e-17
 7.48351104e-17
 7.48351104e-17
 7.48351104e-17
 7.48351104e-17
 7.48351104e-17
 7.48351104e-17
 7.48351104e-17
 7.48351104e-17
 7.48351104e-17
 7.48351104e-17
 7.48351104e-17
 7.48351104e-17
 7.48351104e-17
 7.48351104e-17
 7.48351104e-17
 7.48351104e-17
 7.48351104e-17
 7.48351104e-17
 7.48351104e-17
 7.48351104e-17
 7.48351104e-17
 7.48351104e-17
 7.48351104e-17
 7.48351104e-17
 7.48351104e-17
 1.92807942e-08
 1.92807942e-08
 1.92807942e-08
 2.02051894e-08
 2.02051894e-08
 2.02051894e-08
 2.02051894e-08
 2.02051894e-08
 2.02051894e-08
 4.08970980e-08
 4.08970980e-08
 4.08970980e-08
 4.08970980e-08
 4.08970980e-08
 4.08970980e-08
 4.08970980e-08
 4.08970980e-08
 4.08970980e-08
 4.08970980e-08
 4.08970980e-08
 4.08970980e-08
 4.08970980e-08
 4.08970980e-08
 4.08970980e-08
 2.79974883e-08
 2.79974883e-08
 2.79974883e-08
 2.79974883e-08
 2.79974883e-08
 2.79974883e-08
 2.79974883e-08
 2.79974883e-08
 2.79974883e-08
 2.79974883e-08
 2.79974883e-08
 2.79974883e-08
 7.89720983e-09
 5.16319715e-09
 5.16319715e-09
 5.16319715e-09
 5.16319715e-09
 5.16319715e-09
 5.16319715e-09
 5.16319715e-09
 4.27269208e-09
 4.27269208e-09
 4.27269208e-09
 4.27269208e-09
 4.27269208e-09
 4.27269208e-09
 1.96880020e-09
 2.23922793e-09
 2.23922793e-09
 2.23922793e-09
 6.65930423e-10
 6.65930423e-10
 1.13653499e-10
)
)
1
(
101
(
 1.25273687e-16
 1.25273687e-16
 1.25273687e-16
 1.25273687e-16
 1.25273687e-16
 1.25273687e-16
 1.25273687e-16
 1.25273687e-16
 1.25273687e-16
 1.25273687e-16
 1.25273687e-16
 1.25273687e-16
 1.25273687e-16
 1.25273687e-16
 1.25273687e-16
 1.25273687e-16
 1.25273687e-16
 1.25273687e-16
 1.25273687e-16
 1.25273687e-16
 1.25273687e-16
 1.25273687e-16
 1.25273687e-16
 1.25273687e-16
 1.25273687e-16
 1.25273687e-16
 1.25273687e-16
 1.25273687e-16
 1.25273687e-16
 1.25273687e-16
 1.25273687e-16
 1.25273687e-16
 1.25273687e-16
 1.25273687e-16
 1.25273687e-16
 1.25273687e-16
 1.25273687e-16
 1.25273687e-16
 1.25273687e-16
 1.25273687e-16
 1.25273687e-16
 1.25273687e-16
 2.91942630e-14
 1.92807942e-08
 1.92807942e-08
 1.92807942e-08
 1.92807942e-08
 1.92807942e-08
 2.02051894e-08
 2.02051894e-08
 2.02051894e-08
 2.02051894e-08
 2.02051894e-08
 2.02051894e-08
 4.08970980e-08
 4.08970980e-08
 4.08970980e-08
 4.08970980e-08
 4.08970980e-08
 4.08970980e-08
 4.08970980e-08
 4.08970980e-08
 4.08970980e-08
 4.08970980e-08
 4.08970980e-08
 4.08970980e-08
 4.08970980e-08
 4.08970980e-08
 4.08970980e-08
 4.08970980e-08
 2.79974883e-08
 2.79974883e-08
 2.79974883e-08
 2.79974883e-08
 2.79974883e-08
 2.79974883e-08
 2.79974883e-08
 2.79974883e-08
 2.79974883e-08
 2.79974883e-08
 2.79974883e-08
 7.89720983e-09
 7.89720983e-09
 5.16319715e-09
 5.16319715e-09
 5.16319715e-09
 5.16319715e-09
 5.16319715e-09
 5.16319715e-09
 4.27269208e-09
 4.27269208e-09
 4.27269208e-09
 4.27269208e-09
 4.27269208e-09
 4.27269208e-09
 1.96880020e-09
 1.96880020e-09
 1.36799021e-09
 1.36799021e-09
 6.65930423e-10
 6.65930423e-10
)
)
1
(
101
(
 4.50311169e-16
 4.50311169e-16
 4.50311169e-16
 4.50311169e-16
 4.50311169e-16
 4.50311169e-16
 4.50311169e-16
 4.50311169e-16
 4.50311169e-16
 4.50311169e-16
 4.50311169e-16
 4.50311169e-16
 4.50311169e-16
 4.50311169e-16
 4.50311169e-16
 4.50311169e-16
 4.50311169e-16
 4.50311169e-16
 4.50311169e-16
 4.50311169e-16
 4.50311169e-16
 4.50311169e-16
 4.50311169e-16
 4.50311169e-16
 4.50311169e-16
 4.50311169e-16
 4.50311169e-16
 4.50311169e-16
 4.50311169e-16
 4.50311169e-16
 4.50311169e-16
 4.50311169e-16
 4.50311169e-16
 2.91942630e-14
 2.91942630e-14
 2.91942630e-14
 2.91942630e-14
 2.91942630e-14
 2.91942630e-14
 2.91942630e-14
 2.91942630e-14
 2.91942630e-14
 2.91942630e-14
 1.92807942e-08
 1.92807942e-08
 1.92807942e-08
 1.92807942e-08
 1.92807942e-08
 1.92807942e-08
 2.02051894e-08
 2.02051894e-08
 2.02051894e-08
 2.02051894e-08
 2.02051894e-08
 2.02051894e-08
 2.02051894e-08
 4.08970980e-08
 4.08970980e-08
 4.08970980e-08
 4.08970980e-08
 4.08970980e-08
 4.08970980e-08
 4.08970980e-08
 4.08970980e-08
 4.08970980e-08
 4.08970980e-08
 4.08970980e-08
 4.08970980e-08
 4.08970980e-08
 4.08970980e-08
 4.08970980e-08
 2.79974883e-08
 2.79974883e-08
 2.79974883e-08
 2.79974883e-08
 2.79974883e-08
 2.79974883e-08
 2.79974883e-08
 2.79974883e-08
 2.79974883e-08
 2.79974883e-08
 2.79974883e-08
 7.89720983e-09
 7.89720983e-09
 5.16319715e-09
 5.16319715e-09
 5.16319715e-09
 5.16319715e-09
 5.16319715e-09
 5.16319715e-09
 5.16319715e-09
 4.27269208e-09
 4.27269208e-09
 4.27269208e-09
 4.27269208e-09
 4.27269208e-09
 1.96880020e-09
 1.96880020e-09
 1.36799021e-09
 1.36799021e-09
 6.65930423e-10
)
)
1
(
101
(
 7.50434309e-16
 7.50434309e-16
 7.50434309e-16
 7.50434309e-16
 7.50434309e-16
 7.50434309e-16
 7.50434309e-16
 7.50434309e-16
 7.50434309e-16
 7.50434309e-16
 7.50434309e-16
 7.50434309e-16
 7.50434309e-16
 7.50434309e-16
 7.50434309e-16
 7.50434309e-16
 7.50434309e-16
 7.50434309e-16
 7.50434309e-16
 7.50434309e-16
 7.50434309e-16
 7.50434309e-16
 7.50434309e-16
 7.50434309e-16
 7.50434309e-16
 7.50434309e-16
 2.91942630e-14
 2.91942630e-14
 2.91942630e-14
 2.91942630e-14
 2.91942630e-14
 2.91942630e-14
 2.91942630e-14
 2.91942630e-14
 2.91942630e-14
 2.91942630e-14
 2.91942630e-14
 2.91942630e-14
 2.91942630e-14
 2.91942630e-14
 2.91942630e-14
 2.91942630e-14
 2.91942630e-14
 1.92807942e-08
 1.92807942e-08
 1.92807942e-08
 1.92807942e-08
 1.92807942e-08
 1.92807942e-08
 1.92807942e-08
 2.02051894e-08
 2.02051894e-08
 2.02051894e-08
 2.02051894e-08
 2.02051894e-08
 2.02051894e-08
 2.02051894e-08
 4.08970980e-08
 4.08970980e-08
 4.08970980e-08
 4.08970980e-08
 4.08970980e-08
 4.08970980e-08
 4.08970980e-08
 4.08970980e-08
 4.08970980e-08
 4.08970980e-08
 4.08970980e-08
 4.08970980e-08
 4.08970980e-08
 4.08970980e-08
 4.08970980e-08
 2.79974883e-08
 2.79974883e-08
 2.79974883e-08
 2.79974883e-08
 2.79974883e-08
 2.79974883e-08
 2.79974883e-08
 2.79974883e-08
 2.79974883e-08
 2.79974883e-08
 2.79974883e-08
 7.89720983e-09
 7.89720983e-09
 7.89720983e-09
 5.16319715e-09
 5.16319715e-09
 5.16319715e-09
 5.16319715e-09
 5.16319715e-09
 5.16319715e-09
 4.43496589e-09
 4.27269208e-09
 4.27269208e-09
 4.27269208e-09
 1.79696164e-09
 1.79696164e-09
 1.79696164e-09
 1.36799021e-09
 1.36799021e-09
)
)
1
(
101
(
 1.39832839e-15
 1.39832839e-15
 1.39832839e-15
 1.39832839e-15
 1.39832839e-15
 1.39832839e-15
 1.39832839e-15
 1.39832839e-15
 1.39832839e-15
 1.39832839e-15
 1.39832839e-15
 1.39832839e-15
 1.39832839e-15
 1.39832839e-15
 1.39832839e-15
 1.39832839e-15
 1.39832839e-15
 1.39832839e-15
 1.39832839e-15
 2.91942630e-14
 2.91942630e-14
 2.91942630e-14
 2.91942630e-14
 2.91942630e-14
 2.91942630e-14
 2.91942630e-14
 2.91942630e-14
 2.91942630e-14
 2.91942630e-14
 2.91942630e-14
 2.91942630e-14
 2.91942630e-14
 2.91942630e-14
 2.91942630e-14
 2.91942630e-14
 2.91942630e-14
 2.91942630e-14
 2.91942630e-14
 2.91942630e-14
 2.91942630e-14
 2.91942630e-14
 2.91942630e-14
 1.92807942e-08
 1.92807942e-08
 1.92807942e-08
 1.92807942e-08
 1.92807942e-08
 1.92807942e-08
 1.92807942e-08
 1.92807942e-08
 1.92807942e-08
 2.02051894e-08
 2.02051894e-08
 2.02051894e-08
 2.02051894e-08
 2.02051894e-08
 2.02051894e-08
 2.02051894e-08
 2.02051894e-08
 4.08970980e-08
 4.08970980e-08
 4.08970980e-08
 4.08970980e-08
 4.08970980e-08
 4.08970980e-08
 4.08970980e-08
 4.08970980e-08
 4.08970980e-08
 4.08970980e-08
 4.08970980e-08
 4.08970980e-08
 4.08970980e-08
 4.08970980e-08
 2.79974883e-08
 2.79974883e-08
 2.79974883e-08
 2.79974883e-08
 2.79974883e-08
 2.79974883e-08
 2.79974883e-08
 2.79974883e-08
 2.79974883e-08
 2.79974883e-08
 2.79974883e-08
 7.89720983e-09
 7.89720983e-09
 7.89720983e-09
 5.16319715e-09
 5.16319715e-09
 5.16319715e-09
 5.16319715e-09
 5.16319715e-09
 5.16319715e-09
 4.43496589e-09
 4.43496589e-09
 1.83614932e-09
 1.83614932e-09
 1.79696164e-09
 1.79696164e-09
 1.79696164e-09
 1.79696164e-09
)
)
1
(
101
(
 5.72697445e-15
 5.72697445e-15
 5.72697445e-15
 5.72697445e-15
 5.72697445e-15
 5.72697445e-15
 5.72697445e-15
 5.72697445e-15
 5.72697445e-15
 5.72697445e-15
 5.72697445e-15
 5.72697445e-15
 5.72697445e-15
 5.72697445e-15
 2.91942630e-14
 2.91942630e-14
 2.91942630e-14
 2.91942630e-14
 2.91942630e-14
 2.91942630e-14
 2.91942630e-14
 2.91942630e-14
 2.91942630e-14
 2.91942630e-14
 2.91942630e-14
 2.91942630e-14
 2.91942630e-14
 2.91942630e-14
 2.91942630e-14
 2.91942630e-14
 2.91942630e-14
 2.91942630e-14
 2.91942630e-14
 2.91942630e-14
 2.91942630e-14
 2.91942630e-14
 2.91942630e-14
 2.91942630e-14
 2.91942630e-14
 2.91942630e-14
 2.91942630e-14
 2.91942630e-14
 1.92807942e-08
 1.92807942e-08
 1.92807942e-08
 1.92807942e-08
 1.92807942e-08
 1.92807942e-08
 1.92807942e-08
 1.92807942e-08
 1.92807942e-08
 1.92807942e-08
 2.02051894e-08
 2.02051894e-08
 2.02051894e-08
 2.02051894e-08
 2.02051894e-08
 2.02051894e-08
 2.02051894e-08
 2.02051894e-08
 4.08970980e-08
 4.08970980e-08
 4.08970980e-08
 4.08970980e-08
 4.08970980e-08
 4.08970980e-08
 4.08970980e-08
 4.08970980e-08
 4.08970980e-08
 4.08970980e-08
 4.08970980e-08
 4.08970980e-08
 4.08970980e-08
 4.08970980e-08
 4.08970980e-08
 2.79974883e-08
 2.79974883e-08
 2.79974883e-08
 2.79974883e-08
 2.79974883e-08
 2.79974883e-08
 2.79974883e-08
 2.79974883e-08
 2.79974883e-08
 2.79974883e-08
 7.89720983e-09
 7.89720983e-09
 7.89720983e-09
 7.89720983e-09
 5.16319715e-09
 5.16319715e-09
 5.16319715e-09
 5.16319715e-09
 5.16319715e-09
 4.43496589e-09
 4.43496589e-09
 1.83614932e-09
 1.83614932e-09
 1.79696164e-09
 1.79696164e-09
 1.79696164e-09
)
)
1
(
101
(
 7.65189553e-15
 7.65189553e-15
 7.65189553e-15
 7.65189553e-15
 7.65189553e-15
 7.65189553e-15
 7.65189553e-15
 7.65189553e-15
 7.65189553e-15
 2.91942630e-14
 2.91942630e-14
 2.91942630e-14
 2.91942630e-14
 2.91942630e-14
 2.91942630e-14
 2.91942630e-14
 2.91942630e-14
 2.91942630e-14
 2.91942630e-14
 2.91942630e-14
 2.91942630e-14
 2.91942630e-14
 2.91942630e-14
 2.91942630e-14
 2.91942630e-14
 2.91942630e-14
 2.91942630e-14
 2.91942630e-14
 2.91942630e-14
 2.91942630e-14
 2.91942630e-14
 2.91942630e-14
 2.91942630e-14
 2.91942630e-14
 2.91942630e-14
 2.91942630e-14
 2.91942630e-14
 2.91942630e-14
 2.91942630e-14
 2.91942630e-14
 2.91942630e-14
 2.91942630e-14
 1.92807942e-08
 1.92807942e-08
 1.92807942e-08
 1.92807942e-08
 1.92807942e-08
 1.92807942e-08
 1.92807942e-08
 1.92807942e-08
 1.92807942e-08
 1.92807942e-08
 1.92807942e-08
 1.92807942e-08
 2.02051894e-08
 2.02051894e-08
 2.02051894e-08
 2.02051894e-08
 2.02051894e-08
 2.02051894e-08
 2.02051894e-08
 2.02051894e-08
 4.08970980e-08
 4.08970980e-08
 4.08970980e-08
 4.08970980e-08
 4.08970980e-08
 4.08970980e-08
 4.08970980e-08
 4.08970980e-08
 4.08970980e-08
 4.08970980e-08
 4.08970980e-08
 4.08970980e-08
 4.08970980e-08
 4.08970980e-08
 2.79974883e-08
 2.79974883e-08
 2.79974883e-08
 2.79974883e-08
 2.79974883e-08
 2.79974883e-08
 2.79974883e-08
 2.79974883e-08
 2.79974883e-08
 2.79974883e-08
 7.89720983e-09
 7.89720983e-09
 7.89720983e-09
 7.89720983e-09
 4.93170930e-09
 5.16319715e-09
 5.16319715e-09
 5.16319715e-09
 5.16319715e-09
 4.43496589e-09
 4.43496589e-09
 1.83614932e-09
 1.83614932e-09
 1.79696164e-09
 1.79696164e-09
)
)
1
(
101
(
 1.34271741e-14
 1.34271741e-14
 1.34271741e-14
 1.34271741e-14
 1.34271741e-14
 1.34271741e-14
 2.91942630e-14
 2.91942630e-14
 2.91942630e-14
 2.91942630e-14
 2.91942630e-14
 2.91942630e-14
 2.91942630e-14
 2.91942630e-14
 2.91942630e-14
 2.91942630e-14
 2.91942630e-14
 2.91942630e-14
 2.91942630e-14
 2.91942630e-14
 2.91942630e-14
 2.91942630e-14
 2.91942630e-14
 2.91942630e-14
 2.91942630e-14
 2.91942630e-14
 2.91942630e-14
 2.91942630e-14
 2.91942630e-14
 2.91942630e-14
 2.91942630e-14
 2.91942630e-14
 2.91942630e-14
 2.91942630e-14
 2.91942630e-14
 2.91942630e-14
 2.91942630e-14
 2.91942630e-14
 2.91942630e-14
 2.91942630e-14
 2.91942630e-14
 2.91942630e-14
 1.92807942e-08
 1.92807942e-08
 1.92807942e-08
 1.92807942e-08
 1.92807942e-08
 1.92807942e-08
 1.92807942e-08
 1.92807942e-08
 1.92807942e-08
 1.92807942e-08
 1.92807942e-08
 1.92807942e-08
 1.92807942e-08
 2.02051894e-08
 2.02051894e-08
 2.02051894e-08
 2.02051894e-08
 2.02051894e-08
 2.02051894e-08
 2.02051894e-08
 2.02051894e-08
 4.08970980e-08
 4.08970980e-08
 4.08970980e-08
 4.08970980e-08
 4.08970980e-08
 4.08970980e-08
 4.08970980e-08
 4.08970980e-08
 4.08970980e-08
 4.08970980e-08
 4.08970980e-08
 4.08970980e-08
 4.08970980e-08
 4.08970980e-08
 2.79974883e-08
 2.79974883e-08
 2.79974883e-08
 2.79974883e-08
 2.79974883e-08
 2.79974883e-08
 2.79974883e-08
 2.79974883e-08
 2.79974883e-08
 2.79974883e-08
 7.89720983e-09
 7.89720983e-09
 7.89720983e-09
 7.89720983e-09
 4.93170930e-09
 4.93170930e-09
 2.96637029e-09
 2.96637029e-09
 2.96637029e-09
 4.43496589e-09
 4.43496589e-09
 1.83614932e-09
 1.83614932e-09
 1.79696164e-09
)
)
1
(
101
(
 2.43409470e-14
 2.43409470e-14
 2.43409470e-14
 2.91942630e-14
 2.91942630e-14
 2.91942630e-14
 2.91942630e-14
 2.91942630e-14
 2.91942630e-14
 2.91942630e-14
 2.91942630e-14
 2.91942630e-14
 2.91942630e-14
 2.91942630e-14
 2.91942630e-14
 2.91942630e-14
 2.91942630e-14
 2.91942630e-14
 2.91942630e-14
 2.91942630e-14
 2.91942630e-14
 2.91942630e-14
 2.91942630e-14
 2.91942630e-14
 2.91942630e-14
 2.91942630e-14
 2.91942630e-14
 2.91942630e-14
 2.91942630e-14
 2.91942630e-14
 2.91942630e-14
 2.91942630e-14
 2.91942630e-14
 2.91942630e-14
 2.91942630e-14
 2.91942630e-14
 2.91942630e-14
 2.91942630e-14
 2.91942630e-14
 2.91942630e-14
 2.91942630e-14
 9.26938610e-09
 1.92807942e-08
 1.92807942e-08
 1.92807942e-08
 1.92807942e-08
 1.92807942e-08
 1.92807942e-08
 1.92807942e-08
 1.92807942e-08
 1.92807942e-08
 1.92807942e-08
 1.92807942e-08
 1.92807942e-08
 1.92807942e-08
 1.92807942e-08
 2.02051894e-08
 2.02051894e-08
 2.02051894e-08
 2.02051894e-08
 2.02051894e-08
 2.02051894e-08
 2.02051894e-08
 2.02051894e-08
 2.02051894e-08
 4.08970980e-08
 4.08970980e-08
 4.08970980e-08
 4.08970980e-08
 4.08970980e-08
 4.08970980e-08
 4.08970980e-08
 4.08970980e-08
 4.08970980e-08
 4.08970980e-08
 4.08970980e-08
 4.08970980e-08
 4.08970980e-08
 2.79974883e-08
 2.79974883e-08
 2.79974883e-08
 2.79974883e-08
 2.79974883e-08
 2.79974883e-08
 2.79974883e-08
 2.79974883e-08
 2.79974883e-08
 2.79974883e-08
 7.89720983e-09
 7.89720983e-09
 7.89720983e-09
 7.89720983e-09
 4.93170930e-09
 4.93170930e-09
 2.96637029e-09
 2.96637029e-09
 2.96637029e-09
 2.96637029e-09
 4.43496589e-09
 1.83614932e-09
 1.83614932e-09
)
)
1
(
101
(
 6.64131901e-15
 6.64131901e-15
 2.91942630e-14
 2.91942630e-14
 2.91942630e-14
 2.91942630e-14
 2.91942630e-14
 2.91942630e-14
 2.91942630e-14
 2.91942630e-14
 2.91942630e-14
 2.91942630e-14
 2.91942630e-14
 2.91942630e-14
 2.91942630e-14
 2.91942630e-14
 2.91942630e-14
 2.91942630e-14
 2.91942630e-14
 2.91942630e-14
 2.91942630e-14
 2.91942630e-14
 2.91942630e-14
 2.91942630e-14
 2.91942630e-14
 2.91942630e-14
 2.91942630e-14
 2.91942630e-14
 2.91942630e-14
 2.91942630e-14
 2.91942630e-14
 2.91942630e-14
 2.91942630e-14
 2.91942630e-14
 2.91942630e-14
 2.91942630e-14
 2.91942630e-14
 2.91942630e-14
 2.91942630e-14
 2.91942630e-14
 2.91942630e-14
 9.26938610e-09
 9.26938610e-09
 1.92807942e-08
 1.92807942e-08
 1.92807942e-08
 1.92807942e-08
 1.92807942e-08
 1.92807942e-08
 1.92807942e-08
 1.92807942e-08
 1.92807942e-08
 1.92807942e-08
 1.92807942e-08
 1.92807942e-08
 1.92807942e-08
 1.92807942e-08
 2.02051894e-08
 2.02051894e-08
 2.02051894e-08
 2.02051894e-08
 2.02051894e-08
 2.02051894e-08
 2.02051894e-08
 2.02051894e-08
 2.02051894e-08
 4.08970980e-08
 4.08970980e-08
 4.08970980e-08
 4.08970980e-08
 4.08970980e-08
 4.08970980e-08
 4.08970980e-08
 4.08970980e-08
 4.08970980e-08
 4.08970980e-08
 4.08970980e-08
 4.08970980e-08
 4.08970980e-08
 4.08970980e-08
 2.79974883e-08
 2.79974883e-08
 2.79974883e-08
 2.79974883e-08
 2.79974883e-08
 2.79974883e-08
 2.79974883e-08
 2.79974883e-08
 6.25706360e-09
 7.89720983e-09
 7.89720983e-09
 7.89720983e-09
 5.25148153e-10
 5.25148153e-10
 5.25148153e-10
 2.96637029e-09
 2.96637029e-09
 2.96637029e-09
 2.96637029e-09
 2.96637029e-09
 1.83614932e-09
)
)
1
(
101
(
 2.11428579e-23
 2.91942630e-14
 2.91942630e-14
 2.91942630e-14
 2.91942630e-14
 2.91942630e-14
 2.91942630e-14
 2.91942630e-14
 2.91942630e-14
 2.91942630e-14
 2.91942630e-14
 2.91942630e-14
 2.91942630e-14
 2.91942630e-14
 2.91942630e-14
 2.91942630e-14
 2.91942630e-14
 2.91942630e-14
 2.91942630e-14
 2.91942630e-14
 2.91942630e-14
 2.91942630e-14
 2.91942630e-14
 2.91942630e-14
 2.91942630e-14
 2.91942630e-14
 2.91942630e-14
 2.91942630e-14
 2.91942630e-14
 2.91942630e-14
 2.91942630e-14
 2.91942630e-14
 2.91942630e-14
 2.91942630e-14
 2.91942630e-14
 2.91942630e-14
 2.91942630e-14
 2.91942630e-14
 2.91942630e-14
 2.91942630e-14
 9.26938610e-09
 9.26938610e-09
 9.26938610e-09
 9.26938610e-09
 1.92807942e-08
 1.92807942e-08
 1.92807942e-08
 1.92807942e-08
 1.92807942e-08
 1.92807942e-08
 1.92807942e-08
 1.92807942e-08
 1.92807942e-08
 1.92807942e-08
 1.92807942e-08
 1.92807942e-08
 1.92807942e-08
 1.92807942e-08
 2.02051894e-08
 2.02051894e-08
 2.02051894e-08
 2.02051894e-08
 2.02051894e-08
 2.02051894e-08
 2.02051894e-08
 2.02051894e-08
 2.02051894e-08
 2.02051894e-08
 4.08970980e-08
 4.08970980e-08
 4.08970980e-08
 4.08970980e-08
 4.08970980e-08
 4.08970980e-08
 4.08970980e-08
 4.08970980e-08
 4.08970980e-08
 4.08970980e-08
 4.08970980e-08
 4.08970980e-08
 4.08970980e-08
 1.47630261e-08
 2.79974883e-08
 2.79974883e-08
 2.79974883e-08
 2.79974883e-08
 2.79974883e-08
 2.79974883e-08
 2.79974883e-08
 6.25706360e-09
 6.25706360e-09
 2.92366522e-09
 2.92366522e-09
 5.25148153e-10
 5.25148153e-10
 5.25148153e-10
 5.25148153e-10
 2.96637029e-09
 2.96637029e-09
 2.96637029e-09
 2.96637029e-09
)
)
1
(
101
(
 2.11428579e-23
 5.74366789e-14
 5.74366789e-14
 5.74366789e-14
 5.74366789e-14
 5.74366789e-14
 5.74366789e-14
 5.74366789e-14
 5.74366789e-14
 5.74366789e-14
 5.74366789e-14
 5.74366789e-14
 5.74366789e-14
 5.74366789e-14
 5.74366789e-14
 5.74366789e-14
 5.74366789e-14
 5.74366789e-14
 5.74366789e-14
 5.74366789e-14
 5.74366789e-14
 5.74366789e-14
 5.74366789e-14
 5.74366789e-14
 5.74366789e-14
 5.74366789e-14
 5.74366789e-14
 5.74366789e-14
 5.74366789e-14
 5.74366789e-14
 5.74366789e-14
 5.74366789e-14
 5.74366789e-14
 5.74366789e-14
 5.74366789e-14
 5.74366789e-14
 5.74366789e-14
 5.74366789e-14
 5.74366789e-14
 5.74366789e-14
 9.26938610e-09
 9.26938610e-09
 9.26938610e-09
 9.26938610e-09
 9.26938610e-09
 1.92807942e-08
 1.92807942e-08
 1.92807942e-08
 1.92807942e-08
 1.92807942e-08
 1.92807942e-08
 1.92807942e-08
 1.92807942e-08
 1.92807942e-08
 1.92807942e-08
 1.92807942e-08
 1.92807942e-08
 1.92807942e-08
 1.92807942e-08
 2.02051894e-08
 2.02051894e-08
 2.02051894e-08
 2.02051894e-08
 2.02051894e-08
 2.02051894e-08
 2.02051894e-08
 2.02051894e-08
 2.02051894e-08
 2.02051894e-08
 4.08970980e-08
 4.08970980e-08
 4.08970980e-08
 4.08970980e-08
 4.08970980e-08
 4.08970980e-08
 4.08970980e-08
 4.08970980e-08
 4.08970980e-08
 4.08970980e-08
 4.08970980e-08
 4.08970980e-08
 4.08970980e-08
 1.47630261e-08
 1.47630261e-08
 2.79974883e-08
 2.79974883e-08
 2.79974883e-08
 2.79974883e-08
 2.79974883e-08
 6.25706360e-09
 6.25706360e-09
 6.25706360e-09
 2.92366522e-09
 2.92366522e-09
 5.25148153e-10
 5.25148153e-10
 5.25148153e-10
 5.25148153e-10
 5.25148153e-10
 2.96637029e-09
 2.96637029e-09
)
)
1
(
101
(
 9.38840600e-14
 9.38840600e-14
 9.38840600e-14
 9.38840600e-14
 9.38840600e-14
 9.38840600e-14
 9.38840600e-14
 9.38840600e-14
 9.38840600e-14
 9.38840600e-14
 9.38840600e-14
 9.38840600e-14
 9.38840600e-14
 9.38840600e-14
 9.38840600e-14
 9.38840600e-14
 9.38840600e-14
 9.38840600e-14
 9.38840600e-14
 9.38840600e-14
 9.38840600e-14
 9.38840600e-14
 9.38840600e-14
 9.38840600e-14
 9.38840600e-14
 9.38840600e-14
 9.38840600e-14
 9.38840600e-14
 9.38840600e-14
 9.38840600e-14
 9.38840600e-14
 9.38840600e-14
 9.38840600e-14
 9.38840600e-14
 9.38840600e-14
 9.38840600e-14
 9.38840600e-14
 9.38840600e-14
 9.38840600e-14
 9.38840600e-14
 9.26938610e-09
 9.26938610e-09
 9.26938610e-09
 9.26938610e-09
 9.26938610e-09
 9.26938610e-09
 1.92807942e-08
 1.92807942e-08
 1.92807942e-08
 1.92807942e-08
 1.92807942e-08
 1.92807942e-08
 1.92807942e-08
 1.92807942e-08
 1.92807942e-08
 1.92807942e-08
 1.92807942e-08
 1.92807942e-08
 1.92807942e-08
 1.92807942e-08
 1.92807942e-08
 2.02051894e-08
 2.02051894e-08
 2.02051894e-08
 2.02051894e-08
 2.02051894e-08
 2.02051894e-08
 2.02051894e-08
 2.02051894e-08
 2.02051894e-08
 2.02051894e-08
 4.08970980e-08
 4.08970980e-08
 4.08970980e-08
 4.08970980e-08
 4.08970980e-08
 4.08970980e-08
 4.08970980e-08
 4.08970980e-08
 4.08970980e-08
 4.08970980e-08
 4.08970980e-08
 4.08970980e-08
 1.47630261e-08
 1.47630261e-08
 1.47630261e-08
 2.79974883e-08
 2.79974883e-08
 2.79974883e-08
 2.79974883e-08
 6.25706360e-09
 6.25706360e-09
 6.25706360e-09
 2.92366522e-09
 2.92366522e-09
 5.25148153e-10
 5.25148153e-10
 5.25148153e-10
 5.25148153e-10
 5.25148153e-10
 5.25148153e-10
)
)
1
(
101
(
 1.37017356e-13
 1.37017356e-13
 1.37017356e-13
 1.37017356e-13
 1.37017356e-13
 1.37017356e-13
 1.37017356e-13
 1.37017356e-13
 1.37017356e-13
 1.37017356e-13
 1.37017356e-13
 1.37017356e-13
 1.37017356e-13
 1.37017356e-13
 1.37017356e-13
 1.37017356e-13
 1.37017356e-13
 1.37017356e-13
 1.37017356e-13
 1.37017356e-13
 1.37017356e-13
 1.37017356e-13
 1.37017356e-13
 1.37017356e-13
 1.37017356e-13
 1.37017356e-13
 1.37017356e-13
 1.37017356e-13
 1.37017356e-13
 1.37017356e-13
 1.37017356e-13
 1.37017356e-13
 1.37017356e-13
 1.37017356e-13
 1.37017356e-13
 1.37017356e-13
 1.37017356e-13
 1.37017356e-13
 1.37017356e-13
 9.26938610e-09
 9.26938610e-09
 9.26938610e-09
 9.26938610e-09
 9.26938610e-09
 9.26938610e-09
 9.26938610e-09
 9.26938610e-09
 9.26938610e-09
 1.92807942e-08
 1.92807942e-08
 1.92807942e-08
 1.92807942e-08
 1.92807942e-08
 1.92807942e-08
 1.92807942e-08
 1.92807942e-08
 1.92807942e-08
 1.92807942e-08
 1.92807942e-08
 1.92807942e-08
 1.92807942e-08
 1.92807942e-08
 2.02051894e-08
 2.02051894e-08
 2.02051894e-08
 2.02051894e-08
 2.02051894e-08
 2.02051894e-08
 2.02051894e-08
 2.02051894e-08
 2.02051894e-08
 2.02051894e-08
 4.08970980e-08
 4.08970980e-08
 4.08970980e-08
 4.08970980e-08
 4.08970980e-08
 4.08970980e-08
 4.08970980e-08
 4.08970980e-08
 4.08970980e-08
 4.08970980e-08
 4.08970980e-08
 4.08970980e-08
 1.47630261e-08
 1.47630261e-08
 1.47630261e-08
 1.47630261e-08
 8.64368588e-09
 8.64368588e-09
 8.64368588e-09
 6.25706360e-09
 6.25706360e-09
 6.25706360e-09
 2.92366522e-09
 2.92366522e-09
 5.25148153e-10
 5.25148153e-10