/*--------------------------------*- C++ -*----------------------------------*\
| =========                 |                                                 |
| \\      /  F ield        | OpenFOAM: The Open Source CFD Toolbox           |
|  \\    /   O peration    | Version:  7                                     |
|   \\  /    A nd          | Web:      http://www.OpenFOAM.com               |
|    \\/     M anipulation |                                                 |
\*---------------------------------------------------------------------------*/

FoamFile
{
    version     2.0;
    format      ascii;
    class       dictionary;
    object      Y_CH2CO_table;
}

Y_CH2CO_table
2
(
101
(
1
(
101
(
 1.07428680e-15
 1.07428680e-15
 1.07428680e-15
 1.07428680e-15
 1.07428680e-15
 1.07428680e-15
 1.07428680e-15
 1.07428680e-15
 1.07428680e-15
 1.07428680e-15
 1.07428680e-15
 1.07428680e-15
 1.07428680e-15
 1.07428680e-15
 1.07428680e-15
 1.07428680e-15
 1.07428680e-15
 1.07428680e-15
 1.07428680e-15
 1.07428680e-15
 1.07428680e-15
 1.07428680e-15
 1.07428680e-15
 1.07428680e-15
 1.07428680e-15
 1.07428680e-15
 1.07428680e-15
 1.07428680e-15
 1.07428680e-15
 1.07428680e-15
 1.07428680e-15
 1.07428680e-15
 1.07428680e-15
 1.07428680e-15
 1.07428680e-15
 1.07428680e-15
 1.07428680e-15
 1.07428680e-15
 1.07428680e-15
 1.07428680e-15
 1.07428680e-15
 1.07428680e-15
 1.07428680e-15
 1.07428680e-15
 1.07428680e-15
 1.76486469e-05
 1.76486469e-05
 4.45586765e-05
 4.45586765e-05
 4.45586765e-05
 4.45586765e-05
 4.45586765e-05
 4.45586765e-05
 4.45586765e-05
 4.45586765e-05
 4.45586765e-05
 4.45586765e-05
 4.45586765e-05
 4.45586765e-05
 4.45586765e-05
 4.45586765e-05
 4.45586765e-05
 4.45586765e-05
 3.32848404e-05
 3.32848404e-05
 3.32848404e-05
 3.32848404e-05
 3.32848404e-05
 3.32848404e-05
 3.32848404e-05
 3.32848404e-05
 3.32848404e-05
 3.32848404e-05
 3.32848404e-05
 3.32848404e-05
 4.69773060e-06
 4.69773060e-06
 4.69773060e-06
 4.69773060e-06
 4.69773060e-06
 4.69773060e-06
 4.69773060e-06
 4.05975696e-06
 4.05975696e-06
 4.05975696e-06
 4.05975696e-06
 4.05975696e-06
 4.05975696e-06
 2.22022305e-06
 2.22022305e-06
 2.22022305e-06
 2.22022305e-06
 2.22022305e-06
 2.22022305e-06
 2.22022305e-06
 2.98682728e-07
 2.98682728e-07
 2.98682728e-07
 2.98682728e-07
 2.98682728e-07
 2.06967455e-09
)
)
1
(
101
(
 1.24941963e-13
 1.24941963e-13
 1.24941963e-13
 1.24941963e-13
 1.24941963e-13
 1.24941963e-13
 1.24941963e-13
 1.24941963e-13
 1.24941963e-13
 1.24941963e-13
 1.24941963e-13
 1.24941963e-13
 1.24941963e-13
 1.24941963e-13
 1.24941963e-13
 1.24941963e-13
 1.24941963e-13
 1.24941963e-13
 1.24941963e-13
 1.24941963e-13
 1.24941963e-13
 1.24941963e-13
 1.24941963e-13
 1.24941963e-13
 1.24941963e-13
 1.24941963e-13
 1.24941963e-13
 1.24941963e-13
 1.24941963e-13
 1.24941963e-13
 1.24941963e-13
 1.24941963e-13
 1.24941963e-13
 1.24941963e-13
 1.24941963e-13
 1.24941963e-13
 1.24941963e-13
 1.24941963e-13
 1.24941963e-13
 1.24941963e-13
 1.24941963e-13
 1.24941963e-13
 1.24941963e-13
 1.24941963e-13
 1.24941963e-13
 1.76486469e-05
 1.76486469e-05
 1.76486469e-05
 4.45586765e-05
 4.45586765e-05
 4.45586765e-05
 4.45586765e-05
 4.45586765e-05
 4.45586765e-05
 4.45586765e-05
 4.45586765e-05
 4.45586765e-05
 4.45586765e-05
 4.45586765e-05
 4.45586765e-05
 4.45586765e-05
 4.45586765e-05
 4.45586765e-05
 4.45586765e-05
 4.45586765e-05
 3.32848404e-05
 3.32848404e-05
 3.32848404e-05
 3.32848404e-05
 3.32848404e-05
 3.32848404e-05
 3.32848404e-05
 3.32848404e-05
 3.32848404e-05
 3.32848404e-05
 3.32848404e-05
 3.32848404e-05
 4.69773060e-06
 4.69773060e-06
 4.69773060e-06
 4.69773060e-06
 4.69773060e-06
 4.69773060e-06
 4.05975696e-06
 4.05975696e-06
 4.05975696e-06
 4.05975696e-06
 4.05975696e-06
 4.05975696e-06
 4.05975696e-06
 2.22022305e-06
 2.22022305e-06
 2.22022305e-06
 2.22022305e-06
 2.22022305e-06
 2.22022305e-06
 1.03847117e-06
 2.98682728e-07
 2.98682728e-07
 2.98682728e-07
 8.52946614e-08
)
)
1
(
101
(
 4.24486253e-13
 4.24486253e-13
 4.24486253e-13
 4.24486253e-13
 4.24486253e-13
 4.24486253e-13
 4.24486253e-13
 4.24486253e-13
 4.24486253e-13
 4.24486253e-13
 4.24486253e-13
 4.24486253e-13
 4.24486253e-13
 4.24486253e-13
 4.24486253e-13
 4.24486253e-13
 4.24486253e-13
 4.24486253e-13
 4.24486253e-13
 4.24486253e-13
 4.24486253e-13
 4.24486253e-13
 4.24486253e-13
 4.24486253e-13
 4.24486253e-13
 4.24486253e-13
 4.24486253e-13
 4.24486253e-13
 4.24486253e-13
 4.24486253e-13
 4.24486253e-13
 4.24486253e-13
 4.24486253e-13
 4.24486253e-13
 4.24486253e-13
 4.24486253e-13
 4.24486253e-13
 4.24486253e-13
 4.24486253e-13
 4.24486253e-13
 4.24486253e-13
 4.24486253e-13
 4.24486253e-13
 4.24486253e-13
 1.76486469e-05
 1.76486469e-05
 1.76486469e-05
 1.76486469e-05
 1.76486469e-05
 1.76486469e-05
 4.45586765e-05
 4.45586765e-05
 4.45586765e-05
 4.45586765e-05
 4.45586765e-05
 4.45586765e-05
 4.45586765e-05
 4.45586765e-05
 4.45586765e-05
 4.45586765e-05
 4.45586765e-05
 4.45586765e-05
 4.45586765e-05
 4.45586765e-05
 4.45586765e-05
 4.45586765e-05
 3.32848404e-05
 3.32848404e-05
 3.32848404e-05
 3.32848404e-05
 3.32848404e-05
 3.32848404e-05
 3.32848404e-05
 3.32848404e-05
 3.32848404e-05
 3.32848404e-05
 3.32848404e-05
 3.32848404e-05
 4.69773060e-06
 4.69773060e-06
 4.69773060e-06
 4.69773060e-06
 4.69773060e-06
 4.69773060e-06
 4.69773060e-06
 4.05975696e-06
 4.05975696e-06
 4.05975696e-06
 4.05975696e-06
 4.05975696e-06
 4.05975696e-06
 2.22022305e-06
 2.22022305e-06
 2.22022305e-06
 2.22022305e-06
 2.22022305e-06
 2.22022305e-06
 1.03847117e-06
 1.03847117e-06
 3.94098632e-07
 3.94098632e-07
)
)
1
(
101
(
 5.82641934e-13
 5.82641934e-13
 5.82641934e-13
 5.82641934e-13
 5.82641934e-13
 5.82641934e-13
 5.82641934e-13
 5.82641934e-13
 5.82641934e-13
 5.82641934e-13
 5.82641934e-13
 5.82641934e-13
 5.82641934e-13
 5.82641934e-13
 5.82641934e-13
 5.82641934e-13
 5.82641934e-13
 5.82641934e-13
 5.82641934e-13
 5.82641934e-13
 5.82641934e-13
 5.82641934e-13
 5.82641934e-13
 5.82641934e-13
 5.82641934e-13
 5.82641934e-13
 5.82641934e-13
 5.82641934e-13
 5.82641934e-13
 5.82641934e-13
 5.82641934e-13
 5.82641934e-13
 5.82641934e-13
 5.82641934e-13
 5.82641934e-13
 5.82641934e-13
 5.82641934e-13
 5.82641934e-13
 5.82641934e-13
 5.82641934e-13
 5.82641934e-13
 5.82641934e-13
 5.82641934e-13
 5.82641934e-13
 1.79999950e-05
 1.76486469e-05
 1.76486469e-05
 1.76486469e-05
 1.76486469e-05
 1.76486469e-05
 1.76486469e-05
 4.45586765e-05
 4.45586765e-05
 4.45586765e-05
 4.45586765e-05
 4.45586765e-05
 4.45586765e-05
 4.45586765e-05
 4.45586765e-05
 4.45586765e-05
 4.45586765e-05
 4.45586765e-05
 4.45586765e-05
 4.45586765e-05
 4.45586765e-05
 4.45586765e-05
 4.45586765e-05
 3.32848404e-05
 3.32848404e-05
 3.32848404e-05
 3.32848404e-05
 3.32848404e-05
 3.32848404e-05
 3.32848404e-05
 3.32848404e-05
 3.32848404e-05
 3.32848404e-05
 3.32848404e-05
 3.32848404e-05
 7.49087518e-06
 4.69773060e-06
 4.69773060e-06
 4.69773060e-06
 4.69773060e-06
 4.69773060e-06
 4.69773060e-06
 4.05975696e-06
 4.05975696e-06
 4.05975696e-06
 4.05975696e-06
 4.05975696e-06
 4.05975696e-06
 4.05975696e-06
 2.22022305e-06
 2.22022305e-06
 2.22022305e-06
 2.22022305e-06
 2.22022305e-06
 1.03847117e-06
 1.66015408e-07
 1.66015408e-07
)
)
1
(
101
(
 1.01007526e-12
 1.01007526e-12
 1.01007526e-12
 1.01007526e-12
 1.01007526e-12
 1.01007526e-12
 1.01007526e-12
 1.01007526e-12
 1.01007526e-12
 1.01007526e-12
 1.01007526e-12
 1.01007526e-12
 1.01007526e-12
 1.01007526e-12
 1.01007526e-12
 1.01007526e-12
 1.01007526e-12
 1.01007526e-12
 1.01007526e-12
 1.01007526e-12
 1.01007526e-12
 1.01007526e-12
 1.01007526e-12
 1.01007526e-12
 1.01007526e-12
 1.01007526e-12
 1.01007526e-12
 1.01007526e-12
 1.01007526e-12
 1.01007526e-12
 1.01007526e-12
 1.01007526e-12
 1.01007526e-12
 1.01007526e-12
 1.01007526e-12
 1.01007526e-12
 1.01007526e-12
 1.01007526e-12
 1.01007526e-12
 1.01007526e-12
 1.01007526e-12
 1.01007526e-12
 1.01007526e-12
 1.01007526e-12
 1.79999950e-05
 1.79999950e-05
 1.79999950e-05
 1.76486469e-05
 1.76486469e-05
 1.76486469e-05
 1.76486469e-05
 1.76486469e-05
 1.76486469e-05
 4.45586765e-05
 4.45586765e-05
 4.45586765e-05
 4.45586765e-05
 4.45586765e-05
 4.45586765e-05
 4.45586765e-05
 4.45586765e-05
 4.45586765e-05
 4.45586765e-05
 4.45586765e-05
 4.45586765e-05
 4.45586765e-05
 4.45586765e-05
 4.45586765e-05
 3.32848404e-05
 3.32848404e-05
 3.32848404e-05
 3.32848404e-05
 3.32848404e-05
 3.32848404e-05
 3.32848404e-05
 3.32848404e-05
 3.32848404e-05
 3.32848404e-05
 3.32848404e-05
 3.32848404e-05
 7.49087518e-06
 4.69773060e-06
 4.69773060e-06
 4.69773060e-06
 4.69773060e-06
 4.69773060e-06
 4.69773060e-06
 4.69773060e-06
 4.05975696e-06
 4.05975696e-06
 4.05975696e-06
 4.05975696e-06
 4.05975696e-06
 4.05975696e-06
 2.24590556e-06
 2.22022305e-06
 2.22022305e-06
 2.22022305e-06
 6.88456919e-07
 6.88456919e-07
 1.66015408e-07
)
)
1
(
101
(
 1.10083544e-12
 1.10083544e-12
 1.10083544e-12
 1.10083544e-12
 1.10083544e-12
 1.10083544e-12
 1.10083544e-12
 1.10083544e-12
 1.10083544e-12
 1.10083544e-12
 1.10083544e-12
 1.10083544e-12
 1.10083544e-12
 1.10083544e-12
 1.10083544e-12
 1.10083544e-12
 1.10083544e-12
 1.10083544e-12
 1.10083544e-12
 1.10083544e-12
 1.10083544e-12
 1.10083544e-12
 1.10083544e-12
 1.10083544e-12
 1.10083544e-12
 1.10083544e-12
 1.10083544e-12
 1.10083544e-12
 1.10083544e-12
 1.10083544e-12
 1.10083544e-12
 1.10083544e-12
 1.10083544e-12
 1.10083544e-12
 1.10083544e-12
 1.10083544e-12
 1.10083544e-12
 1.10083544e-12
 1.10083544e-12
 1.10083544e-12
 1.10083544e-12
 1.10083544e-12
 5.54021370e-12
 1.79999950e-05
 1.79999950e-05
 1.79999950e-05
 1.79999950e-05
 1.79999950e-05
 1.76486469e-05
 1.76486469e-05
 1.76486469e-05
 1.76486469e-05
 1.76486469e-05
 1.76486469e-05
 4.45586765e-05
 4.45586765e-05
 4.45586765e-05
 4.45586765e-05
 4.45586765e-05
 4.45586765e-05
 4.45586765e-05
 4.45586765e-05
 4.45586765e-05
 4.45586765e-05
 4.45586765e-05
 4.45586765e-05
 4.45586765e-05
 4.45586765e-05
 4.45586765e-05
 4.45586765e-05
 3.32848404e-05
 3.32848404e-05
 3.32848404e-05
 3.32848404e-05
 3.32848404e-05
 3.32848404e-05
 3.32848404e-05
 3.32848404e-05
 3.32848404e-05
 3.32848404e-05
 3.32848404e-05
 7.49087518e-06
 7.49087518e-06
 4.69773060e-06
 4.69773060e-06
 4.69773060e-06
 4.69773060e-06
 4.69773060e-06
 4.69773060e-06
 4.05975696e-06
 4.05975696e-06
 4.05975696e-06
 4.05975696e-06
 4.05975696e-06
 4.05975696e-06
 2.24590556e-06
 2.24590556e-06
 1.37289831e-06
 1.37289831e-06
 6.88456919e-07
 6.88456919e-07
)
)
1
(
101
(
 2.08213754e-12
 2.08213754e-12
 2.08213754e-12
 2.08213754e-12
 2.08213754e-12
 2.08213754e-12
 2.08213754e-12
 2.08213754e-12
 2.08213754e-12
 2.08213754e-12
 2.08213754e-12
 2.08213754e-12
 2.08213754e-12
 2.08213754e-12
 2.08213754e-12
 2.08213754e-12
 2.08213754e-12
 2.08213754e-12
 2.08213754e-12
 2.08213754e-12
 2.08213754e-12
 2.08213754e-12
 2.08213754e-12
 2.08213754e-12
 2.08213754e-12
 2.08213754e-12
 2.08213754e-12
 2.08213754e-12
 2.08213754e-12
 2.08213754e-12
 2.08213754e-12
 2.08213754e-12
 2.08213754e-12
 5.54021370e-12
 5.54021370e-12
 5.54021370e-12
 5.54021370e-12
 5.54021370e-12
 5.54021370e-12
 5.54021370e-12
 5.54021370e-12
 5.54021370e-12
 5.54021370e-12
 1.79999950e-05
 1.79999950e-05
 1.79999950e-05
 1.79999950e-05
 1.79999950e-05
 1.79999950e-05
 1.76486469e-05
 1.76486469e-05
 1.76486469e-05
 1.76486469e-05
 1.76486469e-05
 1.76486469e-05
 1.76486469e-05
 4.45586765e-05
 4.45586765e-05
 4.45586765e-05
 4.45586765e-05
 4.45586765e-05
 4.45586765e-05
 4.45586765e-05
 4.45586765e-05
 4.45586765e-05
 4.45586765e-05
 4.45586765e-05
 4.45586765e-05
 4.45586765e-05
 4.45586765e-05
 4.45586765e-05
 3.32848404e-05
 3.32848404e-05
 3.32848404e-05
 3.32848404e-05
 3.32848404e-05
 3.32848404e-05
 3.32848404e-05
 3.32848404e-05
 3.32848404e-05
 3.32848404e-05
 3.32848404e-05
 7.49087518e-06
 7.49087518e-06
 4.69773060e-06
 4.69773060e-06
 4.69773060e-06
 4.69773060e-06
 4.69773060e-06
 4.69773060e-06
 4.69773060e-06
 4.05975696e-06
 4.05975696e-06
 4.05975696e-06
 4.05975696e-06
 4.05975696e-06
 2.24590556e-06
 2.24590556e-06
 1.37289831e-06
 1.37289831e-06
 6.88456919e-07
)
)
1
(
101
(
 2.05707090e-12
 2.05707090e-12
 2.05707090e-12
 2.05707090e-12
 2.05707090e-12
 2.05707090e-12
 2.05707090e-12
 2.05707090e-12
 2.05707090e-12
 2.05707090e-12
 2.05707090e-12
 2.05707090e-12
 2.05707090e-12
 2.05707090e-12
 2.05707090e-12
 2.05707090e-12
 2.05707090e-12
 2.05707090e-12
 2.05707090e-12
 2.05707090e-12
 2.05707090e-12
 2.05707090e-12
 2.05707090e-12
 2.05707090e-12
 2.05707090e-12
 2.05707090e-12
 5.54021370e-12
 5.54021370e-12
 5.54021370e-12
 5.54021370e-12
 5.54021370e-12
 5.54021370e-12
 5.54021370e-12
 5.54021370e-12
 5.54021370e-12
 5.54021370e-12
 5.54021370e-12
 5.54021370e-12
 5.54021370e-12
 5.54021370e-12
 5.54021370e-12
 5.54021370e-12
 5.54021370e-12
 1.79999950e-05
 1.79999950e-05
 1.79999950e-05
 1.79999950e-05
 1.79999950e-05
 1.79999950e-05
 1.79999950e-05
 1.76486469e-05
 1.76486469e-05
 1.76486469e-05
 1.76486469e-05
 1.76486469e-05
 1.76486469e-05
 1.76486469e-05
 4.45586765e-05
 4.45586765e-05
 4.45586765e-05
 4.45586765e-05
 4.45586765e-05
 4.45586765e-05
 4.45586765e-05
 4.45586765e-05
 4.45586765e-05
 4.45586765e-05
 4.45586765e-05
 4.45586765e-05
 4.45586765e-05
 4.45586765e-05
 4.45586765e-05
 3.32848404e-05
 3.32848404e-05
 3.32848404e-05
 3.32848404e-05
 3.32848404e-05
 3.32848404e-05
 3.32848404e-05
 3.32848404e-05
 3.32848404e-05
 3.32848404e-05
 3.32848404e-05
 7.49087518e-06
 7.49087518e-06
 7.49087518e-06
 4.69773060e-06
 4.69773060e-06
 4.69773060e-06
 4.69773060e-06
 4.69773060e-06
 4.69773060e-06
 4.56664409e-06
 4.05975696e-06
 4.05975696e-06
 4.05975696e-06
 1.76831951e-06
 1.76831951e-06
 1.76831951e-06
 1.37289831e-06
 1.37289831e-06
)
)
1
(
101
(
 2.31263384e-12
 2.31263384e-12
 2.31263384e-12
 2.31263384e-12
 2.31263384e-12
 2.31263384e-12
 2.31263384e-12
 2.31263384e-12
 2.31263384e-12
 2.31263384e-12
 2.31263384e-12
 2.31263384e-12
 2.31263384e-12
 2.31263384e-12
 2.31263384e-12
 2.31263384e-12
 2.31263384e-12
 2.31263384e-12
 2.31263384e-12
 5.54021370e-12
 5.54021370e-12
 5.54021370e-12
 5.54021370e-12
 5.54021370e-12
 5.54021370e-12
 5.54021370e-12
 5.54021370e-12
 5.54021370e-12
 5.54021370e-12
 5.54021370e-12
 5.54021370e-12
 5.54021370e-12
 5.54021370e-12
 5.54021370e-12
 5.54021370e-12
 5.54021370e-12
 5.54021370e-12
 5.54021370e-12
 5.54021370e-12
 5.54021370e-12
 5.54021370e-12
 5.54021370e-12
 1.79999950e-05
 1.79999950e-05
 1.79999950e-05
 1.79999950e-05
 1.79999950e-05
 1.79999950e-05
 1.79999950e-05
 1.79999950e-05
 1.79999950e-05
 1.76486469e-05
 1.76486469e-05
 1.76486469e-05
 1.76486469e-05
 1.76486469e-05
 1.76486469e-05
 1.76486469e-05
 1.76486469e-05
 4.45586765e-05
 4.45586765e-05
 4.45586765e-05
 4.45586765e-05
 4.45586765e-05
 4.45586765e-05
 4.45586765e-05
 4.45586765e-05
 4.45586765e-05
 4.45586765e-05
 4.45586765e-05
 4.45586765e-05
 4.45586765e-05
 4.45586765e-05
 3.32848404e-05
 3.32848404e-05
 3.32848404e-05
 3.32848404e-05
 3.32848404e-05
 3.32848404e-05
 3.32848404e-05
 3.32848404e-05
 3.32848404e-05
 3.32848404e-05
 3.32848404e-05
 7.49087518e-06
 7.49087518e-06
 7.49087518e-06
 4.69773060e-06
 4.69773060e-06
 4.69773060e-06
 4.69773060e-06
 4.69773060e-06
 4.69773060e-06
 4.56664409e-06
 4.56664409e-06
 1.92347990e-06
 1.92347990e-06
 1.76831951e-06
 1.76831951e-06
 1.76831951e-06
 1.76831951e-06
)
)
1
(
101
(
 4.65070540e-12
 4.65070540e-12
 4.65070540e-12
 4.65070540e-12
 4.65070540e-12
 4.65070540e-12
 4.65070540e-12
 4.65070540e-12
 4.65070540e-12
 4.65070540e-12
 4.65070540e-12
 4.65070540e-12
 4.65070540e-12
 4.65070540e-12
 5.54021370e-12
 5.54021370e-12
 5.54021370e-12
 5.54021370e-12
 5.54021370e-12
 5.54021370e-12
 5.54021370e-12
 5.54021370e-12
 5.54021370e-12
 5.54021370e-12
 5.54021370e-12
 5.54021370e-12
 5.54021370e-12
 5.54021370e-12
 5.54021370e-12
 5.54021370e-12
 5.54021370e-12
 5.54021370e-12
 5.54021370e-12
 5.54021370e-12
 5.54021370e-12
 5.54021370e-12
 5.54021370e-12
 5.54021370e-12
 5.54021370e-12
 5.54021370e-12
 5.54021370e-12
 5.54021370e-12
 1.79999950e-05
 1.79999950e-05
 1.79999950e-05
 1.79999950e-05
 1.79999950e-05
 1.79999950e-05
 1.79999950e-05
 1.79999950e-05
 1.79999950e-05
 1.79999950e-05
 1.76486469e-05
 1.76486469e-05
 1.76486469e-05
 1.76486469e-05
 1.76486469e-05
 1.76486469e-05
 1.76486469e-05
 1.76486469e-05
 4.45586765e-05
 4.45586765e-05
 4.45586765e-05
 4.45586765e-05
 4.45586765e-05
 4.45586765e-05
 4.45586765e-05
 4.45586765e-05
 4.45586765e-05
 4.45586765e-05
 4.45586765e-05
 4.45586765e-05
 4.45586765e-05
 4.45586765e-05
 4.45586765e-05
 3.32848404e-05
 3.32848404e-05
 3.32848404e-05
 3.32848404e-05
 3.32848404e-05
 3.32848404e-05
 3.32848404e-05
 3.32848404e-05
 3.32848404e-05
 3.32848404e-05
 7.49087518e-06
 7.49087518e-06
 7.49087518e-06
 7.49087518e-06
 4.69773060e-06
 4.69773060e-06
 4.69773060e-06
 4.69773060e-06
 4.69773060e-06
 4.56664409e-06
 4.56664409e-06
 1.92347990e-06
 1.92347990e-06
 1.76831951e-06
 1.76831951e-06
 1.76831951e-06
)
)
1
(
101
(
 3.74334254e-12
 3.74334254e-12
 3.74334254e-12
 3.74334254e-12
 3.74334254e-12
 3.74334254e-12
 3.74334254e-12
 3.74334254e-12
 3.74334254e-12
 5.54021370e-12
 5.54021370e-12
 5.54021370e-12
 5.54021370e-12
 5.54021370e-12
 5.54021370e-12
 5.54021370e-12
 5.54021370e-12
 5.54021370e-12
 5.54021370e-12
 5.54021370e-12
 5.54021370e-12
 5.54021370e-12
 5.54021370e-12
 5.54021370e-12
 5.54021370e-12
 5.54021370e-12
 5.54021370e-12
 5.54021370e-12
 5.54021370e-12
 5.54021370e-12
 5.54021370e-12
 5.54021370e-12
 5.54021370e-12
 5.54021370e-12
 5.54021370e-12
 5.54021370e-12
 5.54021370e-12
 5.54021370e-12
 5.54021370e-12
 5.54021370e-12
 5.54021370e-12
 5.54021370e-12
 1.79999950e-05
 1.79999950e-05
 1.79999950e-05
 1.79999950e-05
 1.79999950e-05
 1.79999950e-05
 1.79999950e-05
 1.79999950e-05
 1.79999950e-05
 1.79999950e-05
 1.79999950e-05
 1.79999950e-05
 1.76486469e-05
 1.76486469e-05
 1.76486469e-05
 1.76486469e-05
 1.76486469e-05
 1.76486469e-05
 1.76486469e-05
 1.76486469e-05
 4.45586765e-05
 4.45586765e-05
 4.45586765e-05
 4.45586765e-05
 4.45586765e-05
 4.45586765e-05
 4.45586765e-05
 4.45586765e-05
 4.45586765e-05
 4.45586765e-05
 4.45586765e-05
 4.45586765e-05
 4.45586765e-05
 4.45586765e-05
 3.32848404e-05
 3.32848404e-05
 3.32848404e-05
 3.32848404e-05
 3.32848404e-05
 3.32848404e-05
 3.32848404e-05
 3.32848404e-05
 3.32848404e-05
 3.32848404e-05
 7.49087518e-06
 7.49087518e-06
 7.49087518e-06
 7.49087518e-06
 4.66334339e-06
 4.69773060e-06
 4.69773060e-06
 4.69773060e-06
 4.69773060e-06
 4.56664409e-06
 4.56664409e-06
 1.92347990e-06
 1.92347990e-06
 1.76831951e-06
 1.76831951e-06
)
)
1
(
101
(
 4.41363130e-12
 4.41363130e-12
 4.41363130e-12
 4.41363130e-12
 4.41363130e-12
 4.41363130e-12
 5.54021370e-12
 5.54021370e-12
 5.54021370e-12
 5.54021370e-12
 5.54021370e-12
 5.54021370e-12
 5.54021370e-12
 5.54021370e-12
 5.54021370e-12
 5.54021370e-12
 5.54021370e-12
 5.54021370e-12
 5.54021370e-12
 5.54021370e-12
 5.54021370e-12
 5.54021370e-12
 5.54021370e-12
 5.54021370e-12
 5.54021370e-12
 5.54021370e-12
 5.54021370e-12
 5.54021370e-12
 5.54021370e-12
 5.54021370e-12
 5.54021370e-12
 5.54021370e-12
 5.54021370e-12
 5.54021370e-12
 5.54021370e-12
 5.54021370e-12
 5.54021370e-12
 5.54021370e-12
 5.54021370e-12
 5.54021370e-12
 5.54021370e-12
 5.54021370e-12
 1.79999950e-05
 1.79999950e-05
 1.79999950e-05
 1.79999950e-05
 1.79999950e-05
 1.79999950e-05
 1.79999950e-05
 1.79999950e-05
 1.79999950e-05
 1.79999950e-05
 1.79999950e-05
 1.79999950e-05
 1.79999950e-05
 1.76486469e-05
 1.76486469e-05
 1.76486469e-05
 1.76486469e-05
 1.76486469e-05
 1.76486469e-05
 1.76486469e-05
 1.76486469e-05
 4.45586765e-05
 4.45586765e-05
 4.45586765e-05
 4.45586765e-05
 4.45586765e-05
 4.45586765e-05
 4.45586765e-05
 4.45586765e-05
 4.45586765e-05
 4.45586765e-05
 4.45586765e-05
 4.45586765e-05
 4.45586765e-05
 4.45586765e-05
 3.32848404e-05
 3.32848404e-05
 3.32848404e-05
 3.32848404e-05
 3.32848404e-05
 3.32848404e-05
 3.32848404e-05
 3.32848404e-05
 3.32848404e-05
 3.32848404e-05
 7.49087518e-06
 7.49087518e-06
 7.49087518e-06
 7.49087518e-06
 4.66334339e-06
 4.66334339e-06
 3.08647425e-06
 3.08647425e-06
 3.08647425e-06
 4.56664409e-06
 4.56664409e-06
 1.92347990e-06
 1.92347990e-06
 1.76831951e-06
)
)
1
(
101
(
 5.65812228e-12
 5.65812228e-12
 5.65812228e-12
 5.54021370e-12
 5.54021370e-12
 5.54021370e-12
 5.54021370e-12
 5.54021370e-12
 5.54021370e-12
 5.54021370e-12
 5.54021370e-12
 5.54021370e-12
 5.54021370e-12
 5.54021370e-12
 5.54021370e-12
 5.54021370e-12
 5.54021370e-12
 5.54021370e-12
 5.54021370e-12
 5.54021370e-12
 5.54021370e-12
 5.54021370e-12
 5.54021370e-12
 5.54021370e-12
 5.54021370e-12
 5.54021370e-12
 5.54021370e-12
 5.54021370e-12
 5.54021370e-12
 5.54021370e-12
 5.54021370e-12
 5.54021370e-12
 5.54021370e-12
 5.54021370e-12
 5.54021370e-12
 5.54021370e-12
 5.54021370e-12
 5.54021370e-12
 5.54021370e-12
 5.54021370e-12
 5.54021370e-12
 1.27267007e-05
 1.79999950e-05
 1.79999950e-05
 1.79999950e-05
 1.79999950e-05
 1.79999950e-05
 1.79999950e-05
 1.79999950e-05
 1.79999950e-05
 1.79999950e-05
 1.79999950e-05
 1.79999950e-05
 1.79999950e-05
 1.79999950e-05
 1.79999950e-05
 1.76486469e-05
 1.76486469e-05
 1.76486469e-05
 1.76486469e-05
 1.76486469e-05
 1.76486469e-05
 1.76486469e-05
 1.76486469e-05
 1.76486469e-05
 4.45586765e-05
 4.45586765e-05
 4.45586765e-05
 4.45586765e-05
 4.45586765e-05
 4.45586765e-05
 4.45586765e-05
 4.45586765e-05
 4.45586765e-05
 4.45586765e-05
 4.45586765e-05
 4.45586765e-05
 4.45586765e-05
 3.32848404e-05
 3.32848404e-05
 3.32848404e-05
 3.32848404e-05
 3.32848404e-05
 3.32848404e-05
 3.32848404e-05
 3.32848404e-05
 3.32848404e-05
 3.32848404e-05
 7.49087518e-06
 7.49087518e-06
 7.49087518e-06
 7.49087518e-06
 4.66334339e-06
 4.66334339e-06
 3.08647425e-06
 3.08647425e-06
 3.08647425e-06
 3.08647425e-06
 4.56664409e-06
 1.92347990e-06
 1.92347990e-06
)
)
1
(
101
(
 1.66989615e-12
 1.66989615e-12
 5.54021370e-12
 5.54021370e-12
 5.54021370e-12
 5.54021370e-12
 5.54021370e-12
 5.54021370e-12
 5.54021370e-12
 5.54021370e-12
 5.54021370e-12
 5.54021370e-12
 5.54021370e-12
 5.54021370e-12
 5.54021370e-12
 5.54021370e-12
 5.54021370e-12
 5.54021370e-12
 5.54021370e-12
 5.54021370e-12
 5.54021370e-12
 5.54021370e-12
 5.54021370e-12
 5.54021370e-12
 5.54021370e-12
 5.54021370e-12
 5.54021370e-12
 5.54021370e-12
 5.54021370e-12
 5.54021370e-12
 5.54021370e-12
 5.54021370e-12
 5.54021370e-12
 5.54021370e-12
 5.54021370e-12
 5.54021370e-12
 5.54021370e-12
 5.54021370e-12
 5.54021370e-12
 5.54021370e-12
 5.54021370e-12
 1.27267007e-05
 1.27267007e-05
 1.79999950e-05
 1.79999950e-05
 1.79999950e-05
 1.79999950e-05
 1.79999950e-05
 1.79999950e-05
 1.79999950e-05
 1.79999950e-05
 1.79999950e-05
 1.79999950e-05
 1.79999950e-05
 1.79999950e-05
 1.79999950e-05
 1.79999950e-05
 1.76486469e-05
 1.76486469e-05
 1.76486469e-05
 1.76486469e-05
 1.76486469e-05
 1.76486469e-05
 1.76486469e-05
 1.76486469e-05
 1.76486469e-05
 4.45586765e-05
 4.45586765e-05
 4.45586765e-05
 4.45586765e-05
 4.45586765e-05
 4.45586765e-05
 4.45586765e-05
 4.45586765e-05
 4.45586765e-05
 4.45586765e-05
 4.45586765e-05
 4.45586765e-05
 4.45586765e-05
 4.45586765e-05
 3.32848404e-05
 3.32848404e-05
 3.32848404e-05
 3.32848404e-05
 3.32848404e-05
 3.32848404e-05
 3.32848404e-05
 3.32848404e-05
 5.98793290e-06
 7.49087518e-06
 7.49087518e-06
 7.49087518e-06
 1.25441580e-06
 1.25441580e-06
 1.25441580e-06
 3.08647425e-06
 3.08647425e-06
 3.08647425e-06
 3.08647425e-06
 3.08647425e-06
 1.92347990e-06
)
)
1
(
101
(
 2.20250969e-19
 5.54021370e-12
 5.54021370e-12
 5.54021370e-12
 5.54021370e-12
 5.54021370e-12
 5.54021370e-12
 5.54021370e-12
 5.54021370e-12
 5.54021370e-12
 5.54021370e-12
 5.54021370e-12
 5.54021370e-12
 5.54021370e-12
 5.54021370e-12
 5.54021370e-12
 5.54021370e-12
 5.54021370e-12
 5.54021370e-12
 5.54021370e-12
 5.54021370e-12
 5.54021370e-12
 5.54021370e-12
 5.54021370e-12
 5.54021370e-12
 5.54021370e-12
 5.54021370e-12
 5.54021370e-12
 5.54021370e-12
 5.54021370e-12
 5.54021370e-12
 5.54021370e-12
 5.54021370e-12
 5.54021370e-12
 5.54021370e-12
 5.54021370e-12
 5.54021370e-12
 5.54021370e-12
 5.54021370e-12
 5.54021370e-12
 1.27267007e-05
 1.27267007e-05
 1.27267007e-05
 1.27267007e-05
 1.79999950e-05
 1.79999950e-05
 1.79999950e-05
 1.79999950e-05
 1.79999950e-05
 1.79999950e-05
 1.79999950e-05
 1.79999950e-05
 1.79999950e-05
 1.79999950e-05
 1.79999950e-05
 1.79999950e-05
 1.79999950e-05
 1.79999950e-05
 1.76486469e-05
 1.76486469e-05
 1.76486469e-05
 1.76486469e-05
 1.76486469e-05
 1.76486469e-05
 1.76486469e-05
 1.76486469e-05
 1.76486469e-05
 1.76486469e-05
 4.45586765e-05
 4.45586765e-05
 4.45586765e-05
 4.45586765e-05
 4.45586765e-05
 4.45586765e-05
 4.45586765e-05
 4.45586765e-05
 4.45586765e-05
 4.45586765e-05
 4.45586765e-05
 4.45586765e-05
 4.45586765e-05
 1.29086387e-05
 3.32848404e-05
 3.32848404e-05
 3.32848404e-05
 3.32848404e-05
 3.32848404e-05
 3.32848404e-05
 3.32848404e-05
 5.98793290e-06
 5.98793290e-06
 3.06475406e-06
 3.06475406e-06
 1.25441580e-06
 1.25441580e-06
 1.25441580e-06
 1.25441580e-06
 3.08647425e-06
 3.08647425e-06
 3.08647425e-06
 3.08647425e-06
)
)
1
(
101
(
 2.20250969e-19
 7.17054877e-12
 7.17054877e-12
 7.17054877e-12
 7.17054877e-12
 7.17054877e-12
 7.17054877e-12
 7.17054877e-12
 7.17054877e-12
 7.17054877e-12
 7.17054877e-12
 7.17054877e-12
 7.17054877e-12
 7.17054877e-12
 7.17054877e-12
 7.17054877e-12
 7.17054877e-12
 7.17054877e-12
 7.17054877e-12
 7.17054877e-12
 7.17054877e-12
 7.17054877e-12
 7.17054877e-12
 7.17054877e-12
 7.17054877e-12
 7.17054877e-12
 7.17054877e-12
 7.17054877e-12
 7.17054877e-12
 7.17054877e-12
 7.17054877e-12
 7.17054877e-12
 7.17054877e-12
 7.17054877e-12
 7.17054877e-12
 7.17054877e-12
 7.17054877e-12
 7.17054877e-12
 7.17054877e-12
 7.17054877e-12
 1.27267007e-05
 1.27267007e-05
 1.27267007e-05
 1.27267007e-05
 1.27267007e-05
 1.79999950e-05
 1.79999950e-05
 1.79999950e-05
 1.79999950e-05
 1.79999950e-05
 1.79999950e-05
 1.79999950e-05
 1.79999950e-05
 1.79999950e-05
 1.79999950e-05
 1.79999950e-05
 1.79999950e-05
 1.79999950e-05
 1.79999950e-05
 1.76486469e-05
 1.76486469e-05
 1.76486469e-05
 1.76486469e-05
 1.76486469e-05
 1.76486469e-05
 1.76486469e-05
 1.76486469e-05
 1.76486469e-05
 1.76486469e-05
 4.45586765e-05
 4.45586765e-05
 4.45586765e-05
 4.45586765e-05
 4.45586765e-05
 4.45586765e-05
 4.45586765e-05
 4.45586765e-05
 4.45586765e-05
 4.45586765e-05
 4.45586765e-05
 4.45586765e-05
 4.45586765e-05
 1.29086387e-05
 1.29086387e-05
 3.32848404e-05
 3.32848404e-05
 3.32848404e-05
 3.32848404e-05
 3.32848404e-05
 5.98793290e-06
 5.98793290e-06
 5.98793290e-06
 3.06475406e-06
 3.06475406e-06
 1.25441580e-06
 1.25441580e-06
 1.25441580e-06
 1.25441580e-06
 1.25441580e-06
 3.08647425e-06
 3.08647425e-06
)
)
1
(
101
(
 9.47314319e-12
 9.47314319e-12
 9.47314319e-12
 9.47314319e-12
 9.47314319e-12
 9.47314319e-12
 9.47314319e-12
 9.47314319e-12
 9.47314319e-12
 9.47314319e-12
 9.47314319e-12
 9.47314319e-12
 9.47314319e-12
 9.47314319e-12
 9.47314319e-12
 9.47314319e-12
 9.47314319e-12
 9.47314319e-12
 9.47314319e-12
 9.47314319e-12
 9.47314319e-12
 9.47314319e-12
 9.47314319e-12
 9.47314319e-12
 9.47314319e-12
 9.47314319e-12
 9.47314319e-12
 9.47314319e-12
 9.47314319e-12
 9.47314319e-12
 9.47314319e-12
 9.47314319e-12
 9.47314319e-12
 9.47314319e-12
 9.47314319e-12
 9.47314319e-12
 9.47314319e-12
 9.47314319e-12
 9.47314319e-12
 9.47314319e-12
 1.27267007e-05
 1.27267007e-05
 1.27267007e-05
 1.27267007e-05
 1.27267007e-05
 1.27267007e-05
 1.79999950e-05
 1.79999950e-05
 1.79999950e-05
 1.79999950e-05
 1.79999950e-05
 1.79999950e-05
 1.79999950e-05
 1.79999950e-05
 1.79999950e-05
 1.79999950e-05
 1.79999950e-05
 1.79999950e-05
 1.79999950e-05
 1.79999950e-05
 1.79999950e-05
 1.76486469e-05
 1.76486469e-05
 1.76486469e-05
 1.76486469e-05
 1.76486469e-05
 1.76486469e-05
 1.76486469e-05
 1.76486469e-05
 1.76486469e-05
 1.76486469e-05
 4.45586765e-05
 4.45586765e-05
 4.45586765e-05
 4.45586765e-05
 4.45586765e-05
 4.45586765e-05
 4.45586765e-05
 4.45586765e-05
 4.45586765e-05
 4.45586765e-05
 4.45586765e-05
 4.45586765e-05
 1.29086387e-05
 1.29086387e-05
 1.29086387e-05
 3.32848404e-05
 3.32848404e-05
 3.32848404e-05
 3.32848404e-05
 5.98793290e-06
 5.98793290e-06
 5.98793290e-06
 3.06475406e-06
 3.06475406e-06
 1.25441580e-06
 1.25441580e-06
 1.25441580e-06
 1.25441580e-06
 1.25441580e-06
 1.25441580e-06
)
)
1
(
101
(
 1.16386292e-11
 1.16386292e-11
 1.16386292e-11
 1.16386292e-11
 1.16386292e-11
 1.16386292e-11
 1.16386292e-11
 1.16386292e-11
 1.16386292e-11
 1.16386292e-11
 1.16386292e-11
 1.16386292e-11
 1.16386292e-11
 1.16386292e-11
 1.16386292e-11
 1.16386292e-11
 1.16386292e-11
 1.16386292e-11
 1.16386292e-11
 1.16386292e-11
 1.16386292e-11
 1.16386292e-11
 1.16386292e-11
 1.16386292e-11
 1.16386292e-11
 1.16386292e-11
 1.16386292e-11
 1.16386292e-11
 1.16386292e-11
 1.16386292e-11
 1.16386292e-11
 1.16386292e-11
 1.16386292e-11
 1.16386292e-11
 1.16386292e-11
 1.16386292e-11
 1.16386292e-11
 1.16386292e-11
 1.16386292e-11
 1.27267007e-05
 1.27267007e-05
 1.27267007e-05
 1.27267007e-05
 1.27267007e-05
 1.27267007e-05
 1.27267007e-05
 1.27267007e-05
 1.27267007e-05
 1.79999950e-05
 1.79999950e-05
 1.79999950e-05
 1.79999950e-05
 1.79999950e-05
 1.79999950e-05
 1.79999950e-05
 1.79999950e-05
 1.79999950e-05
 1.79999950e-05
 1.79999950e-05
 1.79999950e-05
 1.79999950e-05
 1.79999950e-05
 1.76486469e-05
 1.76486469e-05
 1.76486469e-05
 1.76486469e-05
 1.76486469e-05
 1.76486469e-05
 1.76486469e-05
 1.76486469e-05
 1.76486469e-05
 1.76486469e-05
 4.45586765e-05
 4.45586765e-05
 4.45586765e-05
 4.45586765e-05
 4.45586765e-05
 4.45586765e-05
 4.45586765e-05
 4.45586765e-05
 4.45586765e-05
 4.45586765e-05
 4.45586765e-05
 4.45586765e-05
 1.29086387e-05
 1.29086387e-05
 1.29086387e-05
 1.29086387e-05
 8.24172519e-06
 8.24172519e-06
 8.24172519e-06
 5.98793290e-06
 5.98793290e-06
 5.98793290e-06
 3.06475406e-06
 3.06475406e-06
 1.25441580e-06
 1.25441580e-06