/*--------------------------------*- C++ -*----------------------------------*\
| =========                 |                                                 |
| \\      /  F ield        | OpenFOAM: The Open Source CFD Toolbox           |
|  \\    /   O peration    | Version:  7                                     |
|   \\  /    A nd          | Web:      http://www.OpenFOAM.com               |
|    \\/     M anipulation |                                                 |
\*---------------------------------------------------------------------------*/

FoamFile
{
    version     2.0;
    format      ascii;
    class       dictionary;
    object      Y_CH_table;
}

Y_CH_table
2
(
101
(
1
(
101
(
 2.17013748e-28
 2.17013748e-28
 2.17013748e-28
 2.17013748e-28
 2.17013748e-28
 2.17013748e-28
 2.17013748e-28
 2.17013748e-28
 2.17013748e-28
 2.17013748e-28
 2.17013748e-28
 2.17013748e-28
 2.17013748e-28
 2.17013748e-28
 2.17013748e-28
 2.17013748e-28
 2.17013748e-28
 2.17013748e-28
 2.17013748e-28
 2.17013748e-28
 2.17013748e-28
 2.17013748e-28
 2.17013748e-28
 2.17013748e-28
 2.17013748e-28
 2.17013748e-28
 2.17013748e-28
 2.17013748e-28
 2.17013748e-28
 2.17013748e-28
 2.17013748e-28
 2.17013748e-28
 2.17013748e-28
 2.17013748e-28
 2.17013748e-28
 2.17013748e-28
 2.17013748e-28
 2.17013748e-28
 2.17013748e-28
 2.17013748e-28
 2.17013748e-28
 2.17013748e-28
 2.17013748e-28
 2.17013748e-28
 2.17013748e-28
 2.37220107e-21
 2.37220107e-21
 3.59205692e-21
 3.59205692e-21
 3.59205692e-21
 3.59205692e-21
 3.59205692e-21
 3.59205692e-21
 3.59205692e-21
 3.59205692e-21
 3.59205692e-21
 3.59205692e-21
 3.59205692e-21
 3.59205692e-21
 3.59205692e-21
 3.59205692e-21
 3.59205692e-21
 3.59205692e-21
 1.09593996e-21
 1.09593996e-21
 1.09593996e-21
 1.09593996e-21
 1.09593996e-21
 1.09593996e-21
 1.09593996e-21
 1.09593996e-21
 1.09593996e-21
 1.09593996e-21
 1.09593996e-21
 1.09593996e-21
 5.02446270e-23
 5.02446270e-23
 5.02446270e-23
 5.02446270e-23
 5.02446270e-23
 5.02446270e-23
 5.02446270e-23
 3.71643145e-23
 3.71643145e-23
 3.71643145e-23
 3.71643145e-23
 3.71643145e-23
 3.71643145e-23
 1.01663568e-23
 1.01663568e-23
 1.01663568e-23
 1.01663568e-23
 1.01663568e-23
 1.01663568e-23
 1.01663568e-23
 3.72775654e-17
 3.72775654e-17
 3.72775654e-17
 3.72775654e-17
 3.72775654e-17
 2.10037021e-16
)
)
1
(
101
(
 1.49512238e-26
 1.49512238e-26
 1.49512238e-26
 1.49512238e-26
 1.49512238e-26
 1.49512238e-26
 1.49512238e-26
 1.49512238e-26
 1.49512238e-26
 1.49512238e-26
 1.49512238e-26
 1.49512238e-26
 1.49512238e-26
 1.49512238e-26
 1.49512238e-26
 1.49512238e-26
 1.49512238e-26
 1.49512238e-26
 1.49512238e-26
 1.49512238e-26
 1.49512238e-26
 1.49512238e-26
 1.49512238e-26
 1.49512238e-26
 1.49512238e-26
 1.49512238e-26
 1.49512238e-26
 1.49512238e-26
 1.49512238e-26
 1.49512238e-26
 1.49512238e-26
 1.49512238e-26
 1.49512238e-26
 1.49512238e-26
 1.49512238e-26
 1.49512238e-26
 1.49512238e-26
 1.49512238e-26
 1.49512238e-26
 1.49512238e-26
 1.49512238e-26
 1.49512238e-26
 1.49512238e-26
 1.49512238e-26
 1.49512238e-26
 2.37220107e-21
 2.37220107e-21
 2.37220107e-21
 3.59205692e-21
 3.59205692e-21
 3.59205692e-21
 3.59205692e-21
 3.59205692e-21
 3.59205692e-21
 3.59205692e-21
 3.59205692e-21
 3.59205692e-21
 3.59205692e-21
 3.59205692e-21
 3.59205692e-21
 3.59205692e-21
 3.59205692e-21
 3.59205692e-21
 3.59205692e-21
 3.59205692e-21
 1.09593996e-21
 1.09593996e-21
 1.09593996e-21
 1.09593996e-21
 1.09593996e-21
 1.09593996e-21
 1.09593996e-21
 1.09593996e-21
 1.09593996e-21
 1.09593996e-21
 1.09593996e-21
 1.09593996e-21
 5.02446270e-23
 5.02446270e-23
 5.02446270e-23
 5.02446270e-23
 5.02446270e-23
 5.02446270e-23
 3.71643145e-23
 3.71643145e-23
 3.71643145e-23
 3.71643145e-23
 3.71643145e-23
 3.71643145e-23
 3.71643145e-23
 1.01663568e-23
 1.01663568e-23
 1.01663568e-23
 1.01663568e-23
 1.01663568e-23
 1.01663568e-23
 3.60259637e-24
 3.72775654e-17
 3.72775654e-17
 3.72775654e-17
 3.57438998e-16
)
)
1
(
101
(
 1.34310847e-25
 1.34310847e-25
 1.34310847e-25
 1.34310847e-25
 1.34310847e-25
 1.34310847e-25
 1.34310847e-25
 1.34310847e-25
 1.34310847e-25
 1.34310847e-25
 1.34310847e-25
 1.34310847e-25
 1.34310847e-25
 1.34310847e-25
 1.34310847e-25
 1.34310847e-25
 1.34310847e-25
 1.34310847e-25
 1.34310847e-25
 1.34310847e-25
 1.34310847e-25
 1.34310847e-25
 1.34310847e-25
 1.34310847e-25
 1.34310847e-25
 1.34310847e-25
 1.34310847e-25
 1.34310847e-25
 1.34310847e-25
 1.34310847e-25
 1.34310847e-25
 1.34310847e-25
 1.34310847e-25
 1.34310847e-25
 1.34310847e-25
 1.34310847e-25
 1.34310847e-25
 1.34310847e-25
 1.34310847e-25
 1.34310847e-25
 1.34310847e-25
 1.34310847e-25
 1.34310847e-25
 1.34310847e-25
 2.37220107e-21
 2.37220107e-21
 2.37220107e-21
 2.37220107e-21
 2.37220107e-21
 2.37220107e-21
 3.59205692e-21
 3.59205692e-21
 3.59205692e-21
 3.59205692e-21
 3.59205692e-21
 3.59205692e-21
 3.59205692e-21
 3.59205692e-21
 3.59205692e-21
 3.59205692e-21
 3.59205692e-21
 3.59205692e-21
 3.59205692e-21
 3.59205692e-21
 3.59205692e-21
 3.59205692e-21
 1.09593996e-21
 1.09593996e-21
 1.09593996e-21
 1.09593996e-21
 1.09593996e-21
 1.09593996e-21
 1.09593996e-21
 1.09593996e-21
 1.09593996e-21
 1.09593996e-21
 1.09593996e-21
 1.09593996e-21
 5.02446270e-23
 5.02446270e-23
 5.02446270e-23
 5.02446270e-23
 5.02446270e-23
 5.02446270e-23
 5.02446270e-23
 3.71643145e-23
 3.71643145e-23
 3.71643145e-23
 3.71643145e-23
 3.71643145e-23
 3.71643145e-23
 1.01663568e-23
 1.01663568e-23
 1.01663568e-23
 1.01663568e-23
 1.01663568e-23
 1.01663568e-23
 3.60259637e-24
 3.60259637e-24
 2.14655149e-16
 2.14655149e-16
)
)
1
(
101
(
 6.76508321e-25
 6.76508321e-25
 6.76508321e-25
 6.76508321e-25
 6.76508321e-25
 6.76508321e-25
 6.76508321e-25
 6.76508321e-25
 6.76508321e-25
 6.76508321e-25
 6.76508321e-25
 6.76508321e-25
 6.76508321e-25
 6.76508321e-25
 6.76508321e-25
 6.76508321e-25
 6.76508321e-25
 6.76508321e-25
 6.76508321e-25
 6.76508321e-25
 6.76508321e-25
 6.76508321e-25
 6.76508321e-25
 6.76508321e-25
 6.76508321e-25
 6.76508321e-25
 6.76508321e-25
 6.76508321e-25
 6.76508321e-25
 6.76508321e-25
 6.76508321e-25
 6.76508321e-25
 6.76508321e-25
 6.76508321e-25
 6.76508321e-25
 6.76508321e-25
 6.76508321e-25
 6.76508321e-25
 6.76508321e-25
 6.76508321e-25
 6.76508321e-25
 6.76508321e-25
 6.76508321e-25
 6.76508321e-25
 4.59040042e-21
 2.37220107e-21
 2.37220107e-21
 2.37220107e-21
 2.37220107e-21
 2.37220107e-21
 2.37220107e-21
 3.59205692e-21
 3.59205692e-21
 3.59205692e-21
 3.59205692e-21
 3.59205692e-21
 3.59205692e-21
 3.59205692e-21
 3.59205692e-21
 3.59205692e-21
 3.59205692e-21
 3.59205692e-21
 3.59205692e-21
 3.59205692e-21
 3.59205692e-21
 3.59205692e-21
 3.59205692e-21
 1.09593996e-21
 1.09593996e-21
 1.09593996e-21
 1.09593996e-21
 1.09593996e-21
 1.09593996e-21
 1.09593996e-21
 1.09593996e-21
 1.09593996e-21
 1.09593996e-21
 1.09593996e-21
 1.09593996e-21
 1.53248521e-22
 5.02446270e-23
 5.02446270e-23
 5.02446270e-23
 5.02446270e-23
 5.02446270e-23
 5.02446270e-23
 3.71643145e-23
 3.71643145e-23
 3.71643145e-23
 3.71643145e-23
 3.71643145e-23
 3.71643145e-23
 3.71643145e-23
 1.01663568e-23
 1.01663568e-23
 1.01663568e-23
 1.01663568e-23
 1.01663568e-23
 3.60259637e-24
 1.61912670e-22
 1.61912670e-22
)
)
1
(
101
(
 3.98008296e-24
 3.98008296e-24
 3.98008296e-24
 3.98008296e-24
 3.98008296e-24
 3.98008296e-24
 3.98008296e-24
 3.98008296e-24
 3.98008296e-24
 3.98008296e-24
 3.98008296e-24
 3.98008296e-24
 3.98008296e-24
 3.98008296e-24
 3.98008296e-24
 3.98008296e-24
 3.98008296e-24
 3.98008296e-24
 3.98008296e-24
 3.98008296e-24
 3.98008296e-24
 3.98008296e-24
 3.98008296e-24
 3.98008296e-24
 3.98008296e-24
 3.98008296e-24
 3.98008296e-24
 3.98008296e-24
 3.98008296e-24
 3.98008296e-24
 3.98008296e-24
 3.98008296e-24
 3.98008296e-24
 3.98008296e-24
 3.98008296e-24
 3.98008296e-24
 3.98008296e-24
 3.98008296e-24
 3.98008296e-24
 3.98008296e-24
 3.98008296e-24
 3.98008296e-24
 3.98008296e-24
 3.98008296e-24
 4.59040042e-21
 4.59040042e-21
 4.59040042e-21
 2.37220107e-21
 2.37220107e-21
 2.37220107e-21
 2.37220107e-21
 2.37220107e-21
 2.37220107e-21
 3.59205692e-21
 3.59205692e-21
 3.59205692e-21
 3.59205692e-21
 3.59205692e-21
 3.59205692e-21
 3.59205692e-21
 3.59205692e-21
 3.59205692e-21
 3.59205692e-21
 3.59205692e-21
 3.59205692e-21
 3.59205692e-21
 3.59205692e-21
 3.59205692e-21
 1.09593996e-21
 1.09593996e-21
 1.09593996e-21
 1.09593996e-21
 1.09593996e-21
 1.09593996e-21
 1.09593996e-21
 1.09593996e-21
 1.09593996e-21
 1.09593996e-21
 1.09593996e-21
 1.09593996e-21
 1.53248521e-22
 5.02446270e-23
 5.02446270e-23
 5.02446270e-23
 5.02446270e-23
 5.02446270e-23
 5.02446270e-23
 5.02446270e-23
 3.71643145e-23
 3.71643145e-23
 3.71643145e-23
 3.71643145e-23
 3.71643145e-23
 3.71643145e-23
 1.16253424e-23
 1.01663568e-23
 1.01663568e-23
 1.01663568e-23
 5.82658412e-16
 5.82658412e-16
 1.61912670e-22
)
)
1
(
101
(
 1.19726787e-23
 1.19726787e-23
 1.19726787e-23
 1.19726787e-23
 1.19726787e-23
 1.19726787e-23
 1.19726787e-23
 1.19726787e-23
 1.19726787e-23
 1.19726787e-23
 1.19726787e-23
 1.19726787e-23
 1.19726787e-23
 1.19726787e-23
 1.19726787e-23
 1.19726787e-23
 1.19726787e-23
 1.19726787e-23
 1.19726787e-23
 1.19726787e-23
 1.19726787e-23
 1.19726787e-23
 1.19726787e-23
 1.19726787e-23
 1.19726787e-23
 1.19726787e-23
 1.19726787e-23
 1.19726787e-23
 1.19726787e-23
 1.19726787e-23
 1.19726787e-23
 1.19726787e-23
 1.19726787e-23
 1.19726787e-23
 1.19726787e-23
 1.19726787e-23
 1.19726787e-23
 1.19726787e-23
 1.19726787e-23
 1.19726787e-23
 1.19726787e-23
 1.19726787e-23
 3.75825061e-19
 4.59040042e-21
 4.59040042e-21
 4.59040042e-21
 4.59040042e-21
 4.59040042e-21
 2.37220107e-21
 2.37220107e-21
 2.37220107e-21
 2.37220107e-21
 2.37220107e-21
 2.37220107e-21
 3.59205692e-21
 3.59205692e-21
 3.59205692e-21
 3.59205692e-21
 3.59205692e-21
 3.59205692e-21
 3.59205692e-21
 3.59205692e-21
 3.59205692e-21
 3.59205692e-21
 3.59205692e-21
 3.59205692e-21
 3.59205692e-21
 3.59205692e-21
 3.59205692e-21
 3.59205692e-21
 1.09593996e-21
 1.09593996e-21
 1.09593996e-21
 1.09593996e-21
 1.09593996e-21
 1.09593996e-21
 1.09593996e-21
 1.09593996e-21
 1.09593996e-21
 1.09593996e-21
 1.09593996e-21
 1.53248521e-22
 1.53248521e-22
 5.02446270e-23
 5.02446270e-23
 5.02446270e-23
 5.02446270e-23
 5.02446270e-23
 5.02446270e-23
 3.71643145e-23
 3.71643145e-23
 3.71643145e-23
 3.71643145e-23
 3.71643145e-23
 3.71643145e-23
 1.16253424e-23
 1.16253424e-23
 7.99358593e-23
 7.99358593e-23
 5.82658412e-16
 5.82658412e-16
)
)
1
(
101
(
 7.61865548e-23
 7.61865548e-23
 7.61865548e-23
 7.61865548e-23
 7.61865548e-23
 7.61865548e-23
 7.61865548e-23
 7.61865548e-23
 7.61865548e-23
 7.61865548e-23
 7.61865548e-23
 7.61865548e-23
 7.61865548e-23
 7.61865548e-23
 7.61865548e-23
 7.61865548e-23
 7.61865548e-23
 7.61865548e-23
 7.61865548e-23
 7.61865548e-23
 7.61865548e-23
 7.61865548e-23
 7.61865548e-23
 7.61865548e-23
 7.61865548e-23
 7.61865548e-23
 7.61865548e-23
 7.61865548e-23
 7.61865548e-23
 7.61865548e-23
 7.61865548e-23
 7.61865548e-23
 7.61865548e-23
 3.75825061e-19
 3.75825061e-19
 3.75825061e-19
 3.75825061e-19
 3.75825061e-19
 3.75825061e-19
 3.75825061e-19
 3.75825061e-19
 3.75825061e-19
 3.75825061e-19
 4.59040042e-21
 4.59040042e-21
 4.59040042e-21
 4.59040042e-21
 4.59040042e-21
 4.59040042e-21
 2.37220107e-21
 2.37220107e-21
 2.37220107e-21
 2.37220107e-21
 2.37220107e-21
 2.37220107e-21
 2.37220107e-21
 3.59205692e-21
 3.59205692e-21
 3.59205692e-21
 3.59205692e-21
 3.59205692e-21
 3.59205692e-21
 3.59205692e-21
 3.59205692e-21
 3.59205692e-21
 3.59205692e-21
 3.59205692e-21
 3.59205692e-21
 3.59205692e-21
 3.59205692e-21
 3.59205692e-21
 1.09593996e-21
 1.09593996e-21
 1.09593996e-21
 1.09593996e-21
 1.09593996e-21
 1.09593996e-21
 1.09593996e-21
 1.09593996e-21
 1.09593996e-21
 1.09593996e-21
 1.09593996e-21
 1.53248521e-22
 1.53248521e-22
 5.02446270e-23
 5.02446270e-23
 5.02446270e-23
 5.02446270e-23
 5.02446270e-23
 5.02446270e-23
 5.02446270e-23
 3.71643145e-23
 3.71643145e-23
 3.71643145e-23
 3.71643145e-23
 3.71643145e-23
 1.16253424e-23
 1.16253424e-23
 7.99358593e-23
 7.99358593e-23
 5.82658412e-16
)
)
1
(
101
(
 2.32292413e-22
 2.32292413e-22
 2.32292413e-22
 2.32292413e-22
 2.32292413e-22
 2.32292413e-22
 2.32292413e-22
 2.32292413e-22
 2.32292413e-22
 2.32292413e-22
 2.32292413e-22
 2.32292413e-22
 2.32292413e-22
 2.32292413e-22
 2.32292413e-22
 2.32292413e-22
 2.32292413e-22
 2.32292413e-22
 2.32292413e-22
 2.32292413e-22
 2.32292413e-22
 2.32292413e-22
 2.32292413e-22
 2.32292413e-22
 2.32292413e-22
 2.32292413e-22
 3.75825061e-19
 3.75825061e-19
 3.75825061e-19
 3.75825061e-19
 3.75825061e-19
 3.75825061e-19
 3.75825061e-19
 3.75825061e-19
 3.75825061e-19
 3.75825061e-19
 3.75825061e-19
 3.75825061e-19
 3.75825061e-19
 3.75825061e-19
 3.75825061e-19
 3.75825061e-19
 3.75825061e-19
 4.59040042e-21
 4.59040042e-21
 4.59040042e-21
 4.59040042e-21
 4.59040042e-21
 4.59040042e-21
 4.59040042e-21
 2.37220107e-21
 2.37220107e-21
 2.37220107e-21
 2.37220107e-21
 2.37220107e-21
 2.37220107e-21
 2.37220107e-21
 3.59205692e-21
 3.59205692e-21
 3.59205692e-21
 3.59205692e-21
 3.59205692e-21
 3.59205692e-21
 3.59205692e-21
 3.59205692e-21
 3.59205692e-21
 3.59205692e-21
 3.59205692e-21
 3.59205692e-21
 3.59205692e-21
 3.59205692e-21
 3.59205692e-21
 1.09593996e-21
 1.09593996e-21
 1.09593996e-21
 1.09593996e-21
 1.09593996e-21
 1.09593996e-21
 1.09593996e-21
 1.09593996e-21
 1.09593996e-21
 1.09593996e-21
 1.09593996e-21
 1.53248521e-22
 1.53248521e-22
 1.53248521e-22
 5.02446270e-23
 5.02446270e-23
 5.02446270e-23
 5.02446270e-23
 5.02446270e-23
 5.02446270e-23
 4.62085844e-23
 3.71643145e-23
 3.71643145e-23
 3.71643145e-23
 1.11618913e-15
 1.11618913e-15
 1.11618913e-15
 7.99358593e-23
 7.99358593e-23
)
)
1
(
101
(
 7.06680813e-22
 7.06680813e-22
 7.06680813e-22
 7.06680813e-22
 7.06680813e-22
 7.06680813e-22
 7.06680813e-22
 7.06680813e-22
 7.06680813e-22
 7.06680813e-22
 7.06680813e-22
 7.06680813e-22
 7.06680813e-22
 7.06680813e-22
 7.06680813e-22
 7.06680813e-22
 7.06680813e-22
 7.06680813e-22
 7.06680813e-22
 3.75825061e-19
 3.75825061e-19
 3.75825061e-19
 3.75825061e-19
 3.75825061e-19
 3.75825061e-19
 3.75825061e-19
 3.75825061e-19
 3.75825061e-19
 3.75825061e-19
 3.75825061e-19
 3.75825061e-19
 3.75825061e-19
 3.75825061e-19
 3.75825061e-19
 3.75825061e-19
 3.75825061e-19
 3.75825061e-19
 3.75825061e-19
 3.75825061e-19
 3.75825061e-19
 3.75825061e-19
 3.75825061e-19
 4.59040042e-21
 4.59040042e-21
 4.59040042e-21
 4.59040042e-21
 4.59040042e-21
 4.59040042e-21
 4.59040042e-21
 4.59040042e-21
 4.59040042e-21
 2.37220107e-21
 2.37220107e-21
 2.37220107e-21
 2.37220107e-21
 2.37220107e-21
 2.37220107e-21
 2.37220107e-21
 2.37220107e-21
 3.59205692e-21
 3.59205692e-21
 3.59205692e-21
 3.59205692e-21
 3.59205692e-21
 3.59205692e-21
 3.59205692e-21
 3.59205692e-21
 3.59205692e-21
 3.59205692e-21
 3.59205692e-21
 3.59205692e-21
 3.59205692e-21
 3.59205692e-21
 1.09593996e-21
 1.09593996e-21
 1.09593996e-21
 1.09593996e-21
 1.09593996e-21
 1.09593996e-21
 1.09593996e-21
 1.09593996e-21
 1.09593996e-21
 1.09593996e-21
 1.09593996e-21
 1.53248521e-22
 1.53248521e-22
 1.53248521e-22
 5.02446270e-23
 5.02446270e-23
 5.02446270e-23
 5.02446270e-23
 5.02446270e-23
 5.02446270e-23
 4.62085844e-23
 4.62085844e-23
 1.41175820e-23
 1.41175820e-23
 1.11618913e-15
 1.11618913e-15
 1.11618913e-15
 1.11618913e-15
)
)
1
(
101
(
 6.01923261e-21
 6.01923261e-21
 6.01923261e-21
 6.01923261e-21
 6.01923261e-21
 6.01923261e-21
 6.01923261e-21
 6.01923261e-21
 6.01923261e-21
 6.01923261e-21
 6.01923261e-21
 6.01923261e-21
 6.01923261e-21
 6.01923261e-21
 3.75825061e-19
 3.75825061e-19
 3.75825061e-19
 3.75825061e-19
 3.75825061e-19
 3.75825061e-19
 3.75825061e-19
 3.75825061e-19
 3.75825061e-19
 3.75825061e-19
 3.75825061e-19
 3.75825061e-19
 3.75825061e-19
 3.75825061e-19
 3.75825061e-19
 3.75825061e-19
 3.75825061e-19
 3.75825061e-19
 3.75825061e-19
 3.75825061e-19
 3.75825061e-19
 3.75825061e-19
 3.75825061e-19
 3.75825061e-19
 3.75825061e-19
 3.75825061e-19
 3.75825061e-19
 3.75825061e-19
 4.59040042e-21
 4.59040042e-21
 4.59040042e-21
 4.59040042e-21
 4.59040042e-21
 4.59040042e-21
 4.59040042e-21
 4.59040042e-21
 4.59040042e-21
 4.59040042e-21
 2.37220107e-21
 2.37220107e-21
 2.37220107e-21
 2.37220107e-21
 2.37220107e-21
 2.37220107e-21
 2.37220107e-21
 2.37220107e-21
 3.59205692e-21
 3.59205692e-21
 3.59205692e-21
 3.59205692e-21
 3.59205692e-21
 3.59205692e-21
 3.59205692e-21
 3.59205692e-21
 3.59205692e-21
 3.59205692e-21
 3.59205692e-21
 3.59205692e-21
 3.59205692e-21
 3.59205692e-21
 3.59205692e-21
 1.09593996e-21
 1.09593996e-21
 1.09593996e-21
 1.09593996e-21
 1.09593996e-21
 1.09593996e-21
 1.09593996e-21
 1.09593996e-21
 1.09593996e-21
 1.09593996e-21
 1.53248521e-22
 1.53248521e-22
 1.53248521e-22
 1.53248521e-22
 5.02446270e-23
 5.02446270e-23
 5.02446270e-23
 5.02446270e-23
 5.02446270e-23
 4.62085844e-23
 4.62085844e-23
 1.41175820e-23
 1.41175820e-23
 1.11618913e-15
 1.11618913e-15
 1.11618913e-15
)
)
1
(
101
(
 1.55734438e-20
 1.55734438e-20
 1.55734438e-20
 1.55734438e-20
 1.55734438e-20
 1.55734438e-20
 1.55734438e-20
 1.55734438e-20
 1.55734438e-20
 3.75825061e-19
 3.75825061e-19
 3.75825061e-19
 3.75825061e-19
 3.75825061e-19
 3.75825061e-19
 3.75825061e-19
 3.75825061e-19
 3.75825061e-19
 3.75825061e-19
 3.75825061e-19
 3.75825061e-19
 3.75825061e-19
 3.75825061e-19
 3.75825061e-19
 3.75825061e-19
 3.75825061e-19
 3.75825061e-19
 3.75825061e-19
 3.75825061e-19
 3.75825061e-19
 3.75825061e-19
 3.75825061e-19
 3.75825061e-19
 3.75825061e-19
 3.75825061e-19
 3.75825061e-19
 3.75825061e-19
 3.75825061e-19
 3.75825061e-19
 3.75825061e-19
 3.75825061e-19
 3.75825061e-19
 4.59040042e-21
 4.59040042e-21
 4.59040042e-21
 4.59040042e-21
 4.59040042e-21
 4.59040042e-21
 4.59040042e-21
 4.59040042e-21
 4.59040042e-21
 4.59040042e-21
 4.59040042e-21
 4.59040042e-21
 2.37220107e-21
 2.37220107e-21
 2.37220107e-21
 2.37220107e-21
 2.37220107e-21
 2.37220107e-21
 2.37220107e-21
 2.37220107e-21
 3.59205692e-21
 3.59205692e-21
 3.59205692e-21
 3.59205692e-21
 3.59205692e-21
 3.59205692e-21
 3.59205692e-21
 3.59205692e-21
 3.59205692e-21
 3.59205692e-21
 3.59205692e-21
 3.59205692e-21
 3.59205692e-21
 3.59205692e-21
 1.09593996e-21
 1.09593996e-21
 1.09593996e-21
 1.09593996e-21
 1.09593996e-21
 1.09593996e-21
 1.09593996e-21
 1.09593996e-21
 1.09593996e-21
 1.09593996e-21
 1.53248521e-22
 1.53248521e-22
 1.53248521e-22
 1.53248521e-22
 7.35114816e-23
 5.02446270e-23
 5.02446270e-23
 5.02446270e-23
 5.02446270e-23
 4.62085844e-23
 4.62085844e-23
 1.41175820e-23
 1.41175820e-23
 1.11618913e-15
 1.11618913e-15
)
)
1
(
101
(
 4.74218126e-20
 4.74218126e-20
 4.74218126e-20
 4.74218126e-20
 4.74218126e-20
 4.74218126e-20
 3.75825061e-19
 3.75825061e-19
 3.75825061e-19
 3.75825061e-19
 3.75825061e-19
 3.75825061e-19
 3.75825061e-19
 3.75825061e-19
 3.75825061e-19
 3.75825061e-19
 3.75825061e-19
 3.75825061e-19
 3.75825061e-19
 3.75825061e-19
 3.75825061e-19
 3.75825061e-19
 3.75825061e-19
 3.75825061e-19
 3.75825061e-19
 3.75825061e-19
 3.75825061e-19
 3.75825061e-19
 3.75825061e-19
 3.75825061e-19
 3.75825061e-19
 3.75825061e-19
 3.75825061e-19
 3.75825061e-19
 3.75825061e-19
 3.75825061e-19
 3.75825061e-19
 3.75825061e-19
 3.75825061e-19
 3.75825061e-19
 3.75825061e-19
 3.75825061e-19
 4.59040042e-21
 4.59040042e-21
 4.59040042e-21
 4.59040042e-21
 4.59040042e-21
 4.59040042e-21
 4.59040042e-21
 4.59040042e-21
 4.59040042e-21
 4.59040042e-21
 4.59040042e-21
 4.59040042e-21
 4.59040042e-21
 2.37220107e-21
 2.37220107e-21
 2.37220107e-21
 2.37220107e-21
 2.37220107e-21
 2.37220107e-21
 2.37220107e-21
 2.37220107e-21
 3.59205692e-21
 3.59205692e-21
 3.59205692e-21
 3.59205692e-21
 3.59205692e-21
 3.59205692e-21
 3.59205692e-21
 3.59205692e-21
 3.59205692e-21
 3.59205692e-21
 3.59205692e-21
 3.59205692e-21
 3.59205692e-21
 3.59205692e-21
 1.09593996e-21
 1.09593996e-21
 1.09593996e-21
 1.09593996e-21
 1.09593996e-21
 1.09593996e-21
 1.09593996e-21
 1.09593996e-21
 1.09593996e-21
 1.09593996e-21
 1.53248521e-22
 1.53248521e-22
 1.53248521e-22
 1.53248521e-22
 7.35114816e-23
 7.35114816e-23
 4.15296067e-23
 4.15296067e-23
 4.15296067e-23
 4.62085844e-23
 4.62085844e-23
 1.41175820e-23
 1.41175820e-23
 1.11618913e-15
)
)
1
(
101
(
 1.50833300e-19
 1.50833300e-19
 1.50833300e-19
 3.75825061e-19
 3.75825061e-19
 3.75825061e-19
 3.75825061e-19
 3.75825061e-19
 3.75825061e-19
 3.75825061e-19
 3.75825061e-19
 3.75825061e-19
 3.75825061e-19
 3.75825061e-19
 3.75825061e-19
 3.75825061e-19
 3.75825061e-19
 3.75825061e-19
 3.75825061e-19
 3.75825061e-19
 3.75825061e-19
 3.75825061e-19
 3.75825061e-19
 3.75825061e-19
 3.75825061e-19
 3.75825061e-19
 3.75825061e-19
 3.75825061e-19
 3.75825061e-19
 3.75825061e-19
 3.75825061e-19
 3.75825061e-19
 3.75825061e-19
 3.75825061e-19
 3.75825061e-19
 3.75825061e-19
 3.75825061e-19
 3.75825061e-19
 3.75825061e-19
 3.75825061e-19
 3.75825061e-19
 1.57855416e-21
 4.59040042e-21
 4.59040042e-21
 4.59040042e-21
 4.59040042e-21
 4.59040042e-21
 4.59040042e-21
 4.59040042e-21
 4.59040042e-21
 4.59040042e-21
 4.59040042e-21
 4.59040042e-21
 4.59040042e-21
 4.59040042e-21
 4.59040042e-21
 2.37220107e-21
 2.37220107e-21
 2.37220107e-21
 2.37220107e-21
 2.37220107e-21
 2.37220107e-21
 2.37220107e-21
 2.37220107e-21
 2.37220107e-21
 3.59205692e-21
 3.59205692e-21
 3.59205692e-21
 3.59205692e-21
 3.59205692e-21
 3.59205692e-21
 3.59205692e-21
 3.59205692e-21
 3.59205692e-21
 3.59205692e-21
 3.59205692e-21
 3.59205692e-21
 3.59205692e-21
 1.09593996e-21
 1.09593996e-21
 1.09593996e-21
 1.09593996e-21
 1.09593996e-21
 1.09593996e-21
 1.09593996e-21
 1.09593996e-21
 1.09593996e-21
 1.09593996e-21
 1.53248521e-22
 1.53248521e-22
 1.53248521e-22
 1.53248521e-22
 7.35114816e-23
 7.35114816e-23
 4.15296067e-23
 4.15296067e-23
 4.15296067e-23
 4.15296067e-23
 4.62085844e-23
 1.41175820e-23
 1.41175820e-23
)
)
1
(
101
(
 4.94951851e-20
 4.94951851e-20
 3.75825061e-19
 3.75825061e-19
 3.75825061e-19
 3.75825061e-19
 3.75825061e-19
 3.75825061e-19
 3.75825061e-19
 3.75825061e-19
 3.75825061e-19
 3.75825061e-19
 3.75825061e-19
 3.75825061e-19
 3.75825061e-19
 3.75825061e-19
 3.75825061e-19
 3.75825061e-19
 3.75825061e-19
 3.75825061e-19
 3.75825061e-19
 3.75825061e-19
 3.75825061e-19
 3.75825061e-19
 3.75825061e-19
 3.75825061e-19
 3.75825061e-19
 3.75825061e-19
 3.75825061e-19
 3.75825061e-19
 3.75825061e-19
 3.75825061e-19
 3.75825061e-19
 3.75825061e-19
 3.75825061e-19
 3.75825061e-19
 3.75825061e-19
 3.75825061e-19
 3.75825061e-19
 3.75825061e-19
 3.75825061e-19
 1.57855416e-21
 1.57855416e-21
 4.59040042e-21
 4.59040042e-21
 4.59040042e-21
 4.59040042e-21
 4.59040042e-21
 4.59040042e-21
 4.59040042e-21
 4.59040042e-21
 4.59040042e-21
 4.59040042e-21
 4.59040042e-21
 4.59040042e-21
 4.59040042e-21
 4.59040042e-21
 2.37220107e-21
 2.37220107e-21
 2.37220107e-21
 2.37220107e-21
 2.37220107e-21
 2.37220107e-21
 2.37220107e-21
 2.37220107e-21
 2.37220107e-21
 3.59205692e-21
 3.59205692e-21
 3.59205692e-21
 3.59205692e-21
 3.59205692e-21
 3.59205692e-21
 3.59205692e-21
 3.59205692e-21
 3.59205692e-21
 3.59205692e-21
 3.59205692e-21
 3.59205692e-21
 3.59205692e-21
 3.59205692e-21
 1.09593996e-21
 1.09593996e-21
 1.09593996e-21
 1.09593996e-21
 1.09593996e-21
 1.09593996e-21
 1.09593996e-21
 1.09593996e-21
 1.50350198e-22
 1.53248521e-22
 1.53248521e-22
 1.53248521e-22
 5.70392750e-27
 5.70392750e-27
 5.70392750e-27
 4.15296067e-23
 4.15296067e-23
 4.15296067e-23
 4.15296067e-23
 4.15296067e-23
 1.41175820e-23
)
)
1
(
101
(
 1.75493375e-29
 3.75825061e-19
 3.75825061e-19
 3.75825061e-19
 3.75825061e-19
 3.75825061e-19
 3.75825061e-19
 3.75825061e-19
 3.75825061e-19
 3.75825061e-19
 3.75825061e-19
 3.75825061e-19
 3.75825061e-19
 3.75825061e-19
 3.75825061e-19
 3.75825061e-19
 3.75825061e-19
 3.75825061e-19
 3.75825061e-19
 3.75825061e-19
 3.75825061e-19
 3.75825061e-19
 3.75825061e-19
 3.75825061e-19
 3.75825061e-19
 3.75825061e-19
 3.75825061e-19
 3.75825061e-19
 3.75825061e-19
 3.75825061e-19
 3.75825061e-19
 3.75825061e-19
 3.75825061e-19
 3.75825061e-19
 3.75825061e-19
 3.75825061e-19
 3.75825061e-19
 3.75825061e-19
 3.75825061e-19
 3.75825061e-19
 1.57855416e-21
 1.57855416e-21
 1.57855416e-21
 1.57855416e-21
 4.59040042e-21
 4.59040042e-21
 4.59040042e-21
 4.59040042e-21
 4.59040042e-21
 4.59040042e-21
 4.59040042e-21
 4.59040042e-21
 4.59040042e-21
 4.59040042e-21
 4.59040042e-21
 4.59040042e-21
 4.59040042e-21
 4.59040042e-21
 2.37220107e-21
 2.37220107e-21
 2.37220107e-21
 2.37220107e-21
 2.37220107e-21
 2.37220107e-21
 2.37220107e-21
 2.37220107e-21
 2.37220107e-21
 2.37220107e-21
 3.59205692e-21
 3.59205692e-21
 3.59205692e-21
 3.59205692e-21
 3.59205692e-21
 3.59205692e-21
 3.59205692e-21
 3.59205692e-21
 3.59205692e-21
 3.59205692e-21
 3.59205692e-21
 3.59205692e-21
 3.59205692e-21
 6.39552196e-22
 1.09593996e-21
 1.09593996e-21
 1.09593996e-21
 1.09593996e-21
 1.09593996e-21
 1.09593996e-21
 1.09593996e-21
 1.50350198e-22
 1.50350198e-22
 1.48827517e-23
 1.48827517e-23
 5.70392750e-27
 5.70392750e-27
 5.70392750e-27
 5.70392750e-27
 4.15296067e-23
 4.15296067e-23
 4.15296067e-23
 4.15296067e-23
)
)
1
(
101
(
 1.75493375e-29
 1.23114022e-18
 1.23114022e-18
 1.23114022e-18
 1.23114022e-18
 1.23114022e-18
 1.23114022e-18
 1.23114022e-18
 1.23114022e-18
 1.23114022e-18
 1.23114022e-18
 1.23114022e-18
 1.23114022e-18
 1.23114022e-18
 1.23114022e-18
 1.23114022e-18
 1.23114022e-18
 1.23114022e-18
 1.23114022e-18
 1.23114022e-18
 1.23114022e-18
 1.23114022e-18
 1.23114022e-18
 1.23114022e-18
 1.23114022e-18
 1.23114022e-18
 1.23114022e-18
 1.23114022e-18
 1.23114022e-18
 1.23114022e-18
 1.23114022e-18
 1.23114022e-18
 1.23114022e-18
 1.23114022e-18
 1.23114022e-18
 1.23114022e-18
 1.23114022e-18
 1.23114022e-18
 1.23114022e-18
 1.23114022e-18
 1.57855416e-21
 1.57855416e-21
 1.57855416e-21
 1.57855416e-21
 1.57855416e-21
 4.59040042e-21
 4.59040042e-21
 4.59040042e-21
 4.59040042e-21
 4.59040042e-21
 4.59040042e-21
 4.59040042e-21
 4.59040042e-21
 4.59040042e-21
 4.59040042e-21
 4.59040042e-21
 4.59040042e-21
 4.59040042e-21
 4.59040042e-21
 2.37220107e-21
 2.37220107e-21
 2.37220107e-21
 2.37220107e-21
 2.37220107e-21
 2.37220107e-21
 2.37220107e-21
 2.37220107e-21
 2.37220107e-21
 2.37220107e-21
 3.59205692e-21
 3.59205692e-21
 3.59205692e-21
 3.59205692e-21
 3.59205692e-21
 3.59205692e-21
 3.59205692e-21
 3.59205692e-21
 3.59205692e-21
 3.59205692e-21
 3.59205692e-21
 3.59205692e-21
 3.59205692e-21
 6.39552196e-22
 6.39552196e-22
 1.09593996e-21
 1.09593996e-21
 1.09593996e-21
 1.09593996e-21
 1.09593996e-21
 1.50350198e-22
 1.50350198e-22
 1.50350198e-22
 1.48827517e-23
 1.48827517e-23
 5.70392750e-27
 5.70392750e-27
 5.70392750e-27
 5.70392750e-27
 5.70392750e-27
 4.15296067e-23
 4.15296067e-23
)
)
1
(
101
(
 3.56456408e-18
 3.56456408e-18
 3.56456408e-18
 3.56456408e-18
 3.56456408e-18
 3.56456408e-18
 3.56456408e-18
 3.56456408e-18
 3.56456408e-18
 3.56456408e-18
 3.56456408e-18
 3.56456408e-18
 3.56456408e-18
 3.56456408e-18
 3.56456408e-18
 3.56456408e-18
 3.56456408e-18
 3.56456408e-18
 3.56456408e-18
 3.56456408e-18
 3.56456408e-18
 3.56456408e-18
 3.56456408e-18
 3.56456408e-18
 3.56456408e-18
 3.56456408e-18
 3.56456408e-18
 3.56456408e-18
 3.56456408e-18
 3.56456408e-18
 3.56456408e-18
 3.56456408e-18
 3.56456408e-18
 3.56456408e-18
 3.56456408e-18
 3.56456408e-18
 3.56456408e-18
 3.56456408e-18
 3.56456408e-18
 3.56456408e-18
 1.57855416e-21
 1.57855416e-21
 1.57855416e-21
 1.57855416e-21
 1.57855416e-21
 1.57855416e-21
 4.59040042e-21
 4.59040042e-21
 4.59040042e-21
 4.59040042e-21
 4.59040042e-21
 4.59040042e-21
 4.59040042e-21
 4.59040042e-21
 4.59040042e-21
 4.59040042e-21
 4.59040042e-21
 4.59040042e-21
 4.59040042e-21
 4.59040042e-21
 4.59040042e-21
 2.37220107e-21
 2.37220107e-21
 2.37220107e-21
 2.37220107e-21
 2.37220107e-21
 2.37220107e-21
 2.37220107e-21
 2.37220107e-21
 2.37220107e-21
 2.37220107e-21
 3.59205692e-21
 3.59205692e-21
 3.59205692e-21
 3.59205692e-21
 3.59205692e-21
 3.59205692e-21
 3.59205692e-21
 3.59205692e-21
 3.59205692e-21
 3.59205692e-21
 3.59205692e-21
 3.59205692e-21
 6.39552196e-22
 6.39552196e-22
 6.39552196e-22
 1.09593996e-21
 1.09593996e-21
 1.09593996e-21
 1.09593996e-21
 1.50350198e-22
 1.50350198e-22
 1.50350198e-22
 1.48827517e-23
 1.48827517e-23
 5.70392750e-27
 5.70392750e-27
 5.70392750e-27
 5.70392750e-27
 5.70392750e-27
 5.70392750e-27
)
)
1
(
101
(
 9.16403402e-18
 9.16403402e-18
 9.16403402e-18
 9.16403402e-18
 9.16403402e-18
 9.16403402e-18
 9.16403402e-18
 9.16403402e-18
 9.16403402e-18
 9.16403402e-18
 9.16403402e-18
 9.16403402e-18
 9.16403402e-18
 9.16403402e-18
 9.16403402e-18
 9.16403402e-18
 9.16403402e-18
 9.16403402e-18
 9.16403402e-18
 9.16403402e-18
 9.16403402e-18
 9.16403402e-18
 9.16403402e-18
 9.16403402e-18
 9.16403402e-18
 9.16403402e-18
 9.16403402e-18
 9.16403402e-18
 9.16403402e-18
 9.16403402e-18
 9.16403402e-18
 9.16403402e-18
 9.16403402e-18
 9.16403402e-18
 9.16403402e-18
 9.16403402e-18
 9.16403402e-18
 9.16403402e-18
 9.16403402e-18
 1.57855416e-21
 1.57855416e-21
 1.57855416e-21
 1.57855416e-21
 1.57855416e-21
 1.57855416e-21
 1.57855416e-21
 1.57855416e-21
 1.57855416e-21
 4.59040042e-21
 4.59040042e-21
 4.59040042e-21
 4.59040042e-21
 4.59040042e-21
 4.59040042e-21
 4.59040042e-21
 4.59040042e-21
 4.59040042e-21
 4.59040042e-21
 4.59040042e-21
 4.59040042e-21
 4.59040042e-21
 4.59040042e-21
 2.37220107e-21
 2.37220107e-21
 2.37220107e-21
 2.37220107e-21
 2.37220107e-21
 2.37220107e-21
 2.37220107e-21
 2.37220107e-21
 2.37220107e-21
 2.37220107e-21
 3.59205692e-21
 3.59205692e-21
 3.59205692e-21
 3.59205692e-21
 3.59205692e-21
 3.59205692e-21
 3.59205692e-21
 3.59205692e-21
 3.59205692e-21
 3.59205692e-21
 3.59205692e-21
 3.59205692e-21
 6.39552196e-22
 6.39552196e-22
 6.39552196e-22
 6.39552196e-22
 2.76160991e-22
 2.76160991e-22
 2.76160991e-22
 1.50350198e-22
 1.50350198e-22
 1.50350198e-22
 1.48827517e-23
 1.48827517e-23
 5.70392750e-27
 5.70392750e-27
 5.70392750e-27