/*--------------------------------*- C++ -*----------------------------------*\
| =========                 |                                                 |
| \\      /  F ield        | OpenFOAM: The Open Source CFD Toolbox           |
|  \\    /   O peration    | Version:  7                                     |
|   \\  /    A nd          | Web:      http://www.OpenFOAM.com               |
|    \\/     M anipulation |                                                 |
\*---------------------------------------------------------------------------*/

FoamFile
{
    version     2.0;
    format      ascii;
    class       dictionary;
    object      Y_CH2_table;
}

Y_CH2_table
2
(
101
(
1
(
101
(
 8.48352766e-21
 8.48352766e-21
 8.48352766e-21
 8.48352766e-21
 8.48352766e-21
 8.48352766e-21
 8.48352766e-21
 8.48352766e-21
 8.48352766e-21
 8.48352766e-21
 8.48352766e-21
 8.48352766e-21
 8.48352766e-21
 8.48352766e-21
 8.48352766e-21
 8.48352766e-21
 8.48352766e-21
 8.48352766e-21
 8.48352766e-21
 8.48352766e-21
 8.48352766e-21
 8.48352766e-21
 8.48352766e-21
 8.48352766e-21
 8.48352766e-21
 8.48352766e-21
 8.48352766e-21
 8.48352766e-21
 8.48352766e-21
 8.48352766e-21
 8.48352766e-21
 8.48352766e-21
 8.48352766e-21
 8.48352766e-21
 8.48352766e-21
 8.48352766e-21
 8.48352766e-21
 8.48352766e-21
 8.48352766e-21
 8.48352766e-21
 8.48352766e-21
 8.48352766e-21
 8.48352766e-21
 8.48352766e-21
 8.48352766e-21
 1.32088950e-12
 1.32088950e-12
 1.09851664e-12
 1.09851664e-12
 1.09851664e-12
 1.09851664e-12
 1.09851664e-12
 1.09851664e-12
 1.09851664e-12
 1.09851664e-12
 1.09851664e-12
 1.09851664e-12
 1.09851664e-12
 1.09851664e-12
 1.09851664e-12
 1.09851664e-12
 1.09851664e-12
 1.09851664e-12
 5.91529750e-13
 5.91529750e-13
 5.91529750e-13
 5.91529750e-13
 5.91529750e-13
 5.91529750e-13
 5.91529750e-13
 5.91529750e-13
 5.91529750e-13
 5.91529750e-13
 5.91529750e-13
 5.91529750e-13
 2.10334715e-13
 2.10334715e-13
 2.10334715e-13
 2.10334715e-13
 2.10334715e-13
 2.10334715e-13
 2.10334715e-13
 1.45702299e-13
 1.45702299e-13
 1.45702299e-13
 1.45702299e-13
 1.45702299e-13
 1.45702299e-13
 7.35168403e-14
 7.35168403e-14
 7.35168403e-14
 7.35168403e-14
 7.35168403e-14
 7.35168403e-14
 7.35168403e-14
 9.42627578e-15
 9.42627578e-15
 9.42627578e-15
 9.42627578e-15
 9.42627578e-15
 7.54534223e-16
)
)
1
(
101
(
 1.78700962e-18
 1.78700962e-18
 1.78700962e-18
 1.78700962e-18
 1.78700962e-18
 1.78700962e-18
 1.78700962e-18
 1.78700962e-18
 1.78700962e-18
 1.78700962e-18
 1.78700962e-18
 1.78700962e-18
 1.78700962e-18
 1.78700962e-18
 1.78700962e-18
 1.78700962e-18
 1.78700962e-18
 1.78700962e-18
 1.78700962e-18
 1.78700962e-18
 1.78700962e-18
 1.78700962e-18
 1.78700962e-18
 1.78700962e-18
 1.78700962e-18
 1.78700962e-18
 1.78700962e-18
 1.78700962e-18
 1.78700962e-18
 1.78700962e-18
 1.78700962e-18
 1.78700962e-18
 1.78700962e-18
 1.78700962e-18
 1.78700962e-18
 1.78700962e-18
 1.78700962e-18
 1.78700962e-18
 1.78700962e-18
 1.78700962e-18
 1.78700962e-18
 1.78700962e-18
 1.78700962e-18
 1.78700962e-18
 1.78700962e-18
 1.32088950e-12
 1.32088950e-12
 1.32088950e-12
 1.09851664e-12
 1.09851664e-12
 1.09851664e-12
 1.09851664e-12
 1.09851664e-12
 1.09851664e-12
 1.09851664e-12
 1.09851664e-12
 1.09851664e-12
 1.09851664e-12
 1.09851664e-12
 1.09851664e-12
 1.09851664e-12
 1.09851664e-12
 1.09851664e-12
 1.09851664e-12
 1.09851664e-12
 5.91529750e-13
 5.91529750e-13
 5.91529750e-13
 5.91529750e-13
 5.91529750e-13
 5.91529750e-13
 5.91529750e-13
 5.91529750e-13
 5.91529750e-13
 5.91529750e-13
 5.91529750e-13
 5.91529750e-13
 2.10334715e-13
 2.10334715e-13
 2.10334715e-13
 2.10334715e-13
 2.10334715e-13
 2.10334715e-13
 1.45702299e-13
 1.45702299e-13
 1.45702299e-13
 1.45702299e-13
 1.45702299e-13
 1.45702299e-13
 1.45702299e-13
 7.35168403e-14
 7.35168403e-14
 7.35168403e-14
 7.35168403e-14
 7.35168403e-14
 7.35168403e-14
 3.09293686e-14
 9.42627578e-15
 9.42627578e-15
 9.42627578e-15
 4.34793732e-15
)
)
1
(
101
(
 1.08774866e-17
 1.08774866e-17
 1.08774866e-17
 1.08774866e-17
 1.08774866e-17
 1.08774866e-17
 1.08774866e-17
 1.08774866e-17
 1.08774866e-17
 1.08774866e-17
 1.08774866e-17
 1.08774866e-17
 1.08774866e-17
 1.08774866e-17
 1.08774866e-17
 1.08774866e-17
 1.08774866e-17
 1.08774866e-17
 1.08774866e-17
 1.08774866e-17
 1.08774866e-17
 1.08774866e-17
 1.08774866e-17
 1.08774866e-17
 1.08774866e-17
 1.08774866e-17
 1.08774866e-17
 1.08774866e-17
 1.08774866e-17
 1.08774866e-17
 1.08774866e-17
 1.08774866e-17
 1.08774866e-17
 1.08774866e-17
 1.08774866e-17
 1.08774866e-17
 1.08774866e-17
 1.08774866e-17
 1.08774866e-17
 1.08774866e-17
 1.08774866e-17
 1.08774866e-17
 1.08774866e-17
 1.08774866e-17
 1.32088950e-12
 1.32088950e-12
 1.32088950e-12
 1.32088950e-12
 1.32088950e-12
 1.32088950e-12
 1.09851664e-12
 1.09851664e-12
 1.09851664e-12
 1.09851664e-12
 1.09851664e-12
 1.09851664e-12
 1.09851664e-12
 1.09851664e-12
 1.09851664e-12
 1.09851664e-12
 1.09851664e-12
 1.09851664e-12
 1.09851664e-12
 1.09851664e-12
 1.09851664e-12
 1.09851664e-12
 5.91529750e-13
 5.91529750e-13
 5.91529750e-13
 5.91529750e-13
 5.91529750e-13
 5.91529750e-13
 5.91529750e-13
 5.91529750e-13
 5.91529750e-13
 5.91529750e-13
 5.91529750e-13
 5.91529750e-13
 2.10334715e-13
 2.10334715e-13
 2.10334715e-13
 2.10334715e-13
 2.10334715e-13
 2.10334715e-13
 2.10334715e-13
 1.45702299e-13
 1.45702299e-13
 1.45702299e-13
 1.45702299e-13
 1.45702299e-13
 1.45702299e-13
 7.35168403e-14
 7.35168403e-14
 7.35168403e-14
 7.35168403e-14
 7.35168403e-14
 7.35168403e-14
 3.09293686e-14
 3.09293686e-14
 1.41215507e-14
 1.41215507e-14
)
)
1
(
101
(
 2.34257216e-17
 2.34257216e-17
 2.34257216e-17
 2.34257216e-17
 2.34257216e-17
 2.34257216e-17
 2.34257216e-17
 2.34257216e-17
 2.34257216e-17
 2.34257216e-17
 2.34257216e-17
 2.34257216e-17
 2.34257216e-17
 2.34257216e-17
 2.34257216e-17
 2.34257216e-17
 2.34257216e-17
 2.34257216e-17
 2.34257216e-17
 2.34257216e-17
 2.34257216e-17
 2.34257216e-17
 2.34257216e-17
 2.34257216e-17
 2.34257216e-17
 2.34257216e-17
 2.34257216e-17
 2.34257216e-17
 2.34257216e-17
 2.34257216e-17
 2.34257216e-17
 2.34257216e-17
 2.34257216e-17
 2.34257216e-17
 2.34257216e-17
 2.34257216e-17
 2.34257216e-17
 2.34257216e-17
 2.34257216e-17
 2.34257216e-17
 2.34257216e-17
 2.34257216e-17
 2.34257216e-17
 2.34257216e-17
 1.32006179e-12
 1.32088950e-12
 1.32088950e-12
 1.32088950e-12
 1.32088950e-12
 1.32088950e-12
 1.32088950e-12
 1.09851664e-12
 1.09851664e-12
 1.09851664e-12
 1.09851664e-12
 1.09851664e-12
 1.09851664e-12
 1.09851664e-12
 1.09851664e-12
 1.09851664e-12
 1.09851664e-12
 1.09851664e-12
 1.09851664e-12
 1.09851664e-12
 1.09851664e-12
 1.09851664e-12
 1.09851664e-12
 5.91529750e-13
 5.91529750e-13
 5.91529750e-13
 5.91529750e-13
 5.91529750e-13
 5.91529750e-13
 5.91529750e-13
 5.91529750e-13
 5.91529750e-13
 5.91529750e-13
 5.91529750e-13
 5.91529750e-13
 3.12795658e-13
 2.10334715e-13
 2.10334715e-13
 2.10334715e-13
 2.10334715e-13
 2.10334715e-13
 2.10334715e-13
 1.45702299e-13
 1.45702299e-13
 1.45702299e-13
 1.45702299e-13
 1.45702299e-13
 1.45702299e-13
 1.45702299e-13
 7.35168403e-14
 7.35168403e-14
 7.35168403e-14
 7.35168403e-14
 7.35168403e-14
 3.09293686e-14
 1.23926549e-15
 1.23926549e-15
)
)
1
(
101
(
 6.05646122e-17
 6.05646122e-17
 6.05646122e-17
 6.05646122e-17
 6.05646122e-17
 6.05646122e-17
 6.05646122e-17
 6.05646122e-17
 6.05646122e-17
 6.05646122e-17
 6.05646122e-17
 6.05646122e-17
 6.05646122e-17
 6.05646122e-17
 6.05646122e-17
 6.05646122e-17
 6.05646122e-17
 6.05646122e-17
 6.05646122e-17
 6.05646122e-17
 6.05646122e-17
 6.05646122e-17
 6.05646122e-17
 6.05646122e-17
 6.05646122e-17
 6.05646122e-17
 6.05646122e-17
 6.05646122e-17
 6.05646122e-17
 6.05646122e-17
 6.05646122e-17
 6.05646122e-17
 6.05646122e-17
 6.05646122e-17
 6.05646122e-17
 6.05646122e-17
 6.05646122e-17
 6.05646122e-17
 6.05646122e-17
 6.05646122e-17
 6.05646122e-17
 6.05646122e-17
 6.05646122e-17
 6.05646122e-17
 1.32006179e-12
 1.32006179e-12
 1.32006179e-12
 1.32088950e-12
 1.32088950e-12
 1.32088950e-12
 1.32088950e-12
 1.32088950e-12
 1.32088950e-12
 1.09851664e-12
 1.09851664e-12
 1.09851664e-12
 1.09851664e-12
 1.09851664e-12
 1.09851664e-12
 1.09851664e-12
 1.09851664e-12
 1.09851664e-12
 1.09851664e-12
 1.09851664e-12
 1.09851664e-12
 1.09851664e-12
 1.09851664e-12
 1.09851664e-12
 5.91529750e-13
 5.91529750e-13
 5.91529750e-13
 5.91529750e-13
 5.91529750e-13
 5.91529750e-13
 5.91529750e-13
 5.91529750e-13
 5.91529750e-13
 5.91529750e-13
 5.91529750e-13
 5.91529750e-13
 3.12795658e-13
 2.10334715e-13
 2.10334715e-13
 2.10334715e-13
 2.10334715e-13
 2.10334715e-13
 2.10334715e-13
 2.10334715e-13
 1.45702299e-13
 1.45702299e-13
 1.45702299e-13
 1.45702299e-13
 1.45702299e-13
 1.45702299e-13
 4.32445164e-14
 7.35168403e-14
 7.35168403e-14
 7.35168403e-14
 1.99276032e-14
 1.99276032e-14
 1.23926549e-15
)
)
1
(
101
(
 9.45190899e-17
 9.45190899e-17
 9.45190899e-17
 9.45190899e-17
 9.45190899e-17
 9.45190899e-17
 9.45190899e-17
 9.45190899e-17
 9.45190899e-17
 9.45190899e-17
 9.45190899e-17
 9.45190899e-17
 9.45190899e-17
 9.45190899e-17
 9.45190899e-17
 9.45190899e-17
 9.45190899e-17
 9.45190899e-17
 9.45190899e-17
 9.45190899e-17
 9.45190899e-17
 9.45190899e-17
 9.45190899e-17
 9.45190899e-17
 9.45190899e-17
 9.45190899e-17
 9.45190899e-17
 9.45190899e-17
 9.45190899e-17
 9.45190899e-17
 9.45190899e-17
 9.45190899e-17
 9.45190899e-17
 9.45190899e-17
 9.45190899e-17
 9.45190899e-17
 9.45190899e-17
 9.45190899e-17
 9.45190899e-17
 9.45190899e-17
 9.45190899e-17
 9.45190899e-17
 9.03934160e-15
 1.32006179e-12
 1.32006179e-12
 1.32006179e-12
 1.32006179e-12
 1.32006179e-12
 1.32088950e-12
 1.32088950e-12
 1.32088950e-12
 1.32088950e-12
 1.32088950e-12
 1.32088950e-12
 1.09851664e-12
 1.09851664e-12
 1.09851664e-12
 1.09851664e-12
 1.09851664e-12
 1.09851664e-12
 1.09851664e-12
 1.09851664e-12
 1.09851664e-12
 1.09851664e-12
 1.09851664e-12
 1.09851664e-12
 1.09851664e-12
 1.09851664e-12
 1.09851664e-12
 1.09851664e-12
 5.91529750e-13
 5.91529750e-13
 5.91529750e-13
 5.91529750e-13
 5.91529750e-13
 5.91529750e-13
 5.91529750e-13
 5.91529750e-13
 5.91529750e-13
 5.91529750e-13
 5.91529750e-13
 3.12795658e-13
 3.12795658e-13
 2.10334715e-13
 2.10334715e-13
 2.10334715e-13
 2.10334715e-13
 2.10334715e-13
 2.10334715e-13
 1.45702299e-13
 1.45702299e-13
 1.45702299e-13
 1.45702299e-13
 1.45702299e-13
 1.45702299e-13
 4.32445164e-14
 4.32445164e-14
 4.45031047e-14
 4.45031047e-14
 1.99276032e-14
 1.99276032e-14
)
)
1
(
101
(
 2.59524405e-16
 2.59524405e-16
 2.59524405e-16
 2.59524405e-16
 2.59524405e-16
 2.59524405e-16
 2.59524405e-16
 2.59524405e-16
 2.59524405e-16
 2.59524405e-16
 2.59524405e-16
 2.59524405e-16
 2.59524405e-16
 2.59524405e-16
 2.59524405e-16
 2.59524405e-16
 2.59524405e-16
 2.59524405e-16
 2.59524405e-16
 2.59524405e-16
 2.59524405e-16
 2.59524405e-16
 2.59524405e-16
 2.59524405e-16
 2.59524405e-16
 2.59524405e-16
 2.59524405e-16
 2.59524405e-16
 2.59524405e-16
 2.59524405e-16
 2.59524405e-16
 2.59524405e-16
 2.59524405e-16
 9.03934160e-15
 9.03934160e-15
 9.03934160e-15
 9.03934160e-15
 9.03934160e-15
 9.03934160e-15
 9.03934160e-15
 9.03934160e-15
 9.03934160e-15
 9.03934160e-15
 1.32006179e-12
 1.32006179e-12
 1.32006179e-12
 1.32006179e-12
 1.32006179e-12
 1.32006179e-12
 1.32088950e-12
 1.32088950e-12
 1.32088950e-12
 1.32088950e-12
 1.32088950e-12
 1.32088950e-12
 1.32088950e-12
 1.09851664e-12
 1.09851664e-12
 1.09851664e-12
 1.09851664e-12
 1.09851664e-12
 1.09851664e-12
 1.09851664e-12
 1.09851664e-12
 1.09851664e-12
 1.09851664e-12
 1.09851664e-12
 1.09851664e-12
 1.09851664e-12
 1.09851664e-12
 1.09851664e-12
 5.91529750e-13
 5.91529750e-13
 5.91529750e-13
 5.91529750e-13
 5.91529750e-13
 5.91529750e-13
 5.91529750e-13
 5.91529750e-13
 5.91529750e-13
 5.91529750e-13
 5.91529750e-13
 3.12795658e-13
 3.12795658e-13
 2.10334715e-13
 2.10334715e-13
 2.10334715e-13
 2.10334715e-13
 2.10334715e-13
 2.10334715e-13
 2.10334715e-13
 1.45702299e-13
 1.45702299e-13
 1.45702299e-13
 1.45702299e-13
 1.45702299e-13
 4.32445164e-14
 4.32445164e-14
 4.45031047e-14
 4.45031047e-14
 1.99276032e-14
)
)
1
(
101
(
 3.77235708e-16
 3.77235708e-16
 3.77235708e-16
 3.77235708e-16
 3.77235708e-16
 3.77235708e-16
 3.77235708e-16
 3.77235708e-16
 3.77235708e-16
 3.77235708e-16
 3.77235708e-16
 3.77235708e-16
 3.77235708e-16
 3.77235708e-16
 3.77235708e-16
 3.77235708e-16
 3.77235708e-16
 3.77235708e-16
 3.77235708e-16
 3.77235708e-16
 3.77235708e-16
 3.77235708e-16
 3.77235708e-16
 3.77235708e-16
 3.77235708e-16
 3.77235708e-16
 9.03934160e-15
 9.03934160e-15
 9.03934160e-15
 9.03934160e-15
 9.03934160e-15
 9.03934160e-15
 9.03934160e-15
 9.03934160e-15
 9.03934160e-15
 9.03934160e-15
 9.03934160e-15
 9.03934160e-15
 9.03934160e-15
 9.03934160e-15
 9.03934160e-15
 9.03934160e-15
 9.03934160e-15
 1.32006179e-12
 1.32006179e-12
 1.32006179e-12
 1.32006179e-12
 1.32006179e-12
 1.32006179e-12
 1.32006179e-12
 1.32088950e-12
 1.32088950e-12
 1.32088950e-12
 1.32088950e-12
 1.32088950e-12
 1.32088950e-12
 1.32088950e-12
 1.09851664e-12
 1.09851664e-12
 1.09851664e-12
 1.09851664e-12
 1.09851664e-12
 1.09851664e-12
 1.09851664e-12
 1.09851664e-12
 1.09851664e-12
 1.09851664e-12
 1.09851664e-12
 1.09851664e-12
 1.09851664e-12
 1.09851664e-12
 1.09851664e-12
 5.91529750e-13
 5.91529750e-13
 5.91529750e-13
 5.91529750e-13
 5.91529750e-13
 5.91529750e-13
 5.91529750e-13
 5.91529750e-13
 5.91529750e-13
 5.91529750e-13
 5.91529750e-13
 3.12795658e-13
 3.12795658e-13
 3.12795658e-13
 2.10334715e-13
 2.10334715e-13
 2.10334715e-13
 2.10334715e-13
 2.10334715e-13
 2.10334715e-13
 1.35510326e-13
 1.45702299e-13
 1.45702299e-13
 1.45702299e-13
 6.82168689e-14
 6.82168689e-14
 6.82168689e-14
 4.45031047e-14
 4.45031047e-14
)
)
1
(
101
(
 5.82023948e-16
 5.82023948e-16
 5.82023948e-16
 5.82023948e-16
 5.82023948e-16
 5.82023948e-16
 5.82023948e-16
 5.82023948e-16
 5.82023948e-16
 5.82023948e-16
 5.82023948e-16
 5.82023948e-16
 5.82023948e-16
 5.82023948e-16
 5.82023948e-16
 5.82023948e-16
 5.82023948e-16
 5.82023948e-16
 5.82023948e-16
 9.03934160e-15
 9.03934160e-15
 9.03934160e-15
 9.03934160e-15
 9.03934160e-15
 9.03934160e-15
 9.03934160e-15
 9.03934160e-15
 9.03934160e-15
 9.03934160e-15
 9.03934160e-15
 9.03934160e-15
 9.03934160e-15
 9.03934160e-15
 9.03934160e-15
 9.03934160e-15
 9.03934160e-15
 9.03934160e-15
 9.03934160e-15
 9.03934160e-15
 9.03934160e-15
 9.03934160e-15
 9.03934160e-15
 1.32006179e-12
 1.32006179e-12
 1.32006179e-12
 1.32006179e-12
 1.32006179e-12
 1.32006179e-12
 1.32006179e-12
 1.32006179e-12
 1.32006179e-12
 1.32088950e-12
 1.32088950e-12
 1.32088950e-12
 1.32088950e-12
 1.32088950e-12
 1.32088950e-12
 1.32088950e-12
 1.32088950e-12
 1.09851664e-12
 1.09851664e-12
 1.09851664e-12
 1.09851664e-12
 1.09851664e-12
 1.09851664e-12
 1.09851664e-12
 1.09851664e-12
 1.09851664e-12
 1.09851664e-12
 1.09851664e-12
 1.09851664e-12
 1.09851664e-12
 1.09851664e-12
 5.91529750e-13
 5.91529750e-13
 5.91529750e-13
 5.91529750e-13
 5.91529750e-13
 5.91529750e-13
 5.91529750e-13
 5.91529750e-13
 5.91529750e-13
 5.91529750e-13
 5.91529750e-13
 3.12795658e-13
 3.12795658e-13
 3.12795658e-13
 2.10334715e-13
 2.10334715e-13
 2.10334715e-13
 2.10334715e-13
 2.10334715e-13
 2.10334715e-13
 1.35510326e-13
 1.35510326e-13
 5.79505434e-14
 5.79505434e-14
 6.82168689e-14
 6.82168689e-14
 6.82168689e-14
 6.82168689e-14
)
)
1
(
101
(
 1.77005647e-15
 1.77005647e-15
 1.77005647e-15
 1.77005647e-15
 1.77005647e-15
 1.77005647e-15
 1.77005647e-15
 1.77005647e-15
 1.77005647e-15
 1.77005647e-15
 1.77005647e-15
 1.77005647e-15
 1.77005647e-15
 1.77005647e-15
 9.03934160e-15
 9.03934160e-15
 9.03934160e-15
 9.03934160e-15
 9.03934160e-15
 9.03934160e-15
 9.03934160e-15
 9.03934160e-15
 9.03934160e-15
 9.03934160e-15
 9.03934160e-15
 9.03934160e-15
 9.03934160e-15
 9.03934160e-15
 9.03934160e-15
 9.03934160e-15
 9.03934160e-15
 9.03934160e-15
 9.03934160e-15
 9.03934160e-15
 9.03934160e-15
 9.03934160e-15
 9.03934160e-15
 9.03934160e-15
 9.03934160e-15
 9.03934160e-15
 9.03934160e-15
 9.03934160e-15
 1.32006179e-12
 1.32006179e-12
 1.32006179e-12
 1.32006179e-12
 1.32006179e-12
 1.32006179e-12
 1.32006179e-12
 1.32006179e-12
 1.32006179e-12
 1.32006179e-12
 1.32088950e-12
 1.32088950e-12
 1.32088950e-12
 1.32088950e-12
 1.32088950e-12
 1.32088950e-12
 1.32088950e-12
 1.32088950e-12
 1.09851664e-12
 1.09851664e-12
 1.09851664e-12
 1.09851664e-12
 1.09851664e-12
 1.09851664e-12
 1.09851664e-12
 1.09851664e-12
 1.09851664e-12
 1.09851664e-12
 1.09851664e-12
 1.09851664e-12
 1.09851664e-12
 1.09851664e-12
 1.09851664e-12
 5.91529750e-13
 5.91529750e-13
 5.91529750e-13
 5.91529750e-13
 5.91529750e-13
 5.91529750e-13
 5.91529750e-13
 5.91529750e-13
 5.91529750e-13
 5.91529750e-13
 3.12795658e-13
 3.12795658e-13
 3.12795658e-13
 3.12795658e-13
 2.10334715e-13
 2.10334715e-13
 2.10334715e-13
 2.10334715e-13
 2.10334715e-13
 1.35510326e-13
 1.35510326e-13
 5.79505434e-14
 5.79505434e-14
 6.82168689e-14
 6.82168689e-14
 6.82168689e-14
)
)
1
(
101
(
 2.11896790e-15
 2.11896790e-15
 2.11896790e-15
 2.11896790e-15
 2.11896790e-15
 2.11896790e-15
 2.11896790e-15
 2.11896790e-15
 2.11896790e-15
 9.03934160e-15
 9.03934160e-15
 9.03934160e-15
 9.03934160e-15
 9.03934160e-15
 9.03934160e-15
 9.03934160e-15
 9.03934160e-15
 9.03934160e-15
 9.03934160e-15
 9.03934160e-15
 9.03934160e-15
 9.03934160e-15
 9.03934160e-15
 9.03934160e-15
 9.03934160e-15
 9.03934160e-15
 9.03934160e-15
 9.03934160e-15
 9.03934160e-15
 9.03934160e-15
 9.03934160e-15
 9.03934160e-15
 9.03934160e-15
 9.03934160e-15
 9.03934160e-15
 9.03934160e-15
 9.03934160e-15
 9.03934160e-15
 9.03934160e-15
 9.03934160e-15
 9.03934160e-15
 9.03934160e-15
 1.32006179e-12
 1.32006179e-12
 1.32006179e-12
 1.32006179e-12
 1.32006179e-12
 1.32006179e-12
 1.32006179e-12
 1.32006179e-12
 1.32006179e-12
 1.32006179e-12
 1.32006179e-12
 1.32006179e-12
 1.32088950e-12
 1.32088950e-12
 1.32088950e-12
 1.32088950e-12
 1.32088950e-12
 1.32088950e-12
 1.32088950e-12
 1.32088950e-12
 1.09851664e-12
 1.09851664e-12
 1.09851664e-12
 1.09851664e-12
 1.09851664e-12
 1.09851664e-12
 1.09851664e-12
 1.09851664e-12
 1.09851664e-12
 1.09851664e-12
 1.09851664e-12
 1.09851664e-12
 1.09851664e-12
 1.09851664e-12
 5.91529750e-13
 5.91529750e-13
 5.91529750e-13
 5.91529750e-13
 5.91529750e-13
 5.91529750e-13
 5.91529750e-13
 5.91529750e-13
 5.91529750e-13
 5.91529750e-13
 3.12795658e-13
 3.12795658e-13
 3.12795658e-13
 3.12795658e-13
 1.86290363e-13
 2.10334715e-13
 2.10334715e-13
 2.10334715e-13
 2.10334715e-13
 1.35510326e-13
 1.35510326e-13
 5.79505434e-14
 5.79505434e-14
 6.82168689e-14
 6.82168689e-14
)
)
1
(
101
(
 3.43528928e-15
 3.43528928e-15
 3.43528928e-15
 3.43528928e-15
 3.43528928e-15
 3.43528928e-15
 9.03934160e-15
 9.03934160e-15
 9.03934160e-15
 9.03934160e-15
 9.03934160e-15
 9.03934160e-15
 9.03934160e-15
 9.03934160e-15
 9.03934160e-15
 9.03934160e-15
 9.03934160e-15
 9.03934160e-15
 9.03934160e-15
 9.03934160e-15
 9.03934160e-15
 9.03934160e-15
 9.03934160e-15
 9.03934160e-15
 9.03934160e-15
 9.03934160e-15
 9.03934160e-15
 9.03934160e-15
 9.03934160e-15
 9.03934160e-15
 9.03934160e-15
 9.03934160e-15
 9.03934160e-15
 9.03934160e-15
 9.03934160e-15
 9.03934160e-15
 9.03934160e-15
 9.03934160e-15
 9.03934160e-15
 9.03934160e-15
 9.03934160e-15
 9.03934160e-15
 1.32006179e-12
 1.32006179e-12
 1.32006179e-12
 1.32006179e-12
 1.32006179e-12
 1.32006179e-12
 1.32006179e-12
 1.32006179e-12
 1.32006179e-12
 1.32006179e-12
 1.32006179e-12
 1.32006179e-12
 1.32006179e-12
 1.32088950e-12
 1.32088950e-12
 1.32088950e-12
 1.32088950e-12
 1.32088950e-12
 1.32088950e-12
 1.32088950e-12
 1.32088950e-12
 1.09851664e-12
 1.09851664e-12
 1.09851664e-12
 1.09851664e-12
 1.09851664e-12
 1.09851664e-12
 1.09851664e-12
 1.09851664e-12
 1.09851664e-12
 1.09851664e-12
 1.09851664e-12
 1.09851664e-12
 1.09851664e-12
 1.09851664e-12
 5.91529750e-13
 5.91529750e-13
 5.91529750e-13
 5.91529750e-13
 5.91529750e-13
 5.91529750e-13
 5.91529750e-13
 5.91529750e-13
 5.91529750e-13
 5.91529750e-13
 3.12795658e-13
 3.12795658e-13
 3.12795658e-13
 3.12795658e-13
 1.86290363e-13
 1.86290363e-13
 1.03773768e-13
 1.03773768e-13
 1.03773768e-13
 1.35510326e-13
 1.35510326e-13
 5.79505434e-14
 5.79505434e-14
 6.82168689e-14
)
)
1
(
101
(
 6.04982320e-15
 6.04982320e-15
 6.04982320e-15
 9.03934160e-15
 9.03934160e-15
 9.03934160e-15
 9.03934160e-15
 9.03934160e-15
 9.03934160e-15
 9.03934160e-15
 9.03934160e-15
 9.03934160e-15
 9.03934160e-15
 9.03934160e-15
 9.03934160e-15
 9.03934160e-15
 9.03934160e-15
 9.03934160e-15
 9.03934160e-15
 9.03934160e-15
 9.03934160e-15
 9.03934160e-15
 9.03934160e-15
 9.03934160e-15
 9.03934160e-15
 9.03934160e-15
 9.03934160e-15
 9.03934160e-15
 9.03934160e-15
 9.03934160e-15
 9.03934160e-15
 9.03934160e-15
 9.03934160e-15
 9.03934160e-15
 9.03934160e-15
 9.03934160e-15
 9.03934160e-15
 9.03934160e-15
 9.03934160e-15
 9.03934160e-15
 9.03934160e-15
 5.36273117e-13
 1.32006179e-12
 1.32006179e-12
 1.32006179e-12
 1.32006179e-12
 1.32006179e-12
 1.32006179e-12
 1.32006179e-12
 1.32006179e-12
 1.32006179e-12
 1.32006179e-12
 1.32006179e-12
 1.32006179e-12
 1.32006179e-12
 1.32006179e-12
 1.32088950e-12
 1.32088950e-12
 1.32088950e-12
 1.32088950e-12
 1.32088950e-12
 1.32088950e-12
 1.32088950e-12
 1.32088950e-12
 1.32088950e-12
 1.09851664e-12
 1.09851664e-12
 1.09851664e-12
 1.09851664e-12
 1.09851664e-12
 1.09851664e-12
 1.09851664e-12
 1.09851664e-12
 1.09851664e-12
 1.09851664e-12
 1.09851664e-12
 1.09851664e-12
 1.09851664e-12
 5.91529750e-13
 5.91529750e-13
 5.91529750e-13
 5.91529750e-13
 5.91529750e-13
 5.91529750e-13
 5.91529750e-13
 5.91529750e-13
 5.91529750e-13
 5.91529750e-13
 3.12795658e-13
 3.12795658e-13
 3.12795658e-13
 3.12795658e-13
 1.86290363e-13
 1.86290363e-13
 1.03773768e-13
 1.03773768e-13
 1.03773768e-13
 1.03773768e-13
 1.35510326e-13
 5.79505434e-14
 5.79505434e-14
)
)
1
(
101
(
 2.00622425e-15
 2.00622425e-15
 9.03934160e-15
 9.03934160e-15
 9.03934160e-15
 9.03934160e-15
 9.03934160e-15
 9.03934160e-15
 9.03934160e-15
 9.03934160e-15
 9.03934160e-15
 9.03934160e-15
 9.03934160e-15
 9.03934160e-15
 9.03934160e-15
 9.03934160e-15
 9.03934160e-15
 9.03934160e-15
 9.03934160e-15
 9.03934160e-15
 9.03934160e-15
 9.03934160e-15
 9.03934160e-15
 9.03934160e-15
 9.03934160e-15
 9.03934160e-15
 9.03934160e-15
 9.03934160e-15
 9.03934160e-15
 9.03934160e-15
 9.03934160e-15
 9.03934160e-15
 9.03934160e-15
 9.03934160e-15
 9.03934160e-15
 9.03934160e-15
 9.03934160e-15
 9.03934160e-15
 9.03934160e-15
 9.03934160e-15
 9.03934160e-15
 5.36273117e-13
 5.36273117e-13
 1.32006179e-12
 1.32006179e-12
 1.32006179e-12
 1.32006179e-12
 1.32006179e-12
 1.32006179e-12
 1.32006179e-12
 1.32006179e-12
 1.32006179e-12
 1.32006179e-12
 1.32006179e-12
 1.32006179e-12
 1.32006179e-12
 1.32006179e-12
 1.32088950e-12
 1.32088950e-12
 1.32088950e-12
 1.32088950e-12
 1.32088950e-12
 1.32088950e-12
 1.32088950e-12
 1.32088950e-12
 1.32088950e-12
 1.09851664e-12
 1.09851664e-12
 1.09851664e-12
 1.09851664e-12
 1.09851664e-12
 1.09851664e-12
 1.09851664e-12
 1.09851664e-12
 1.09851664e-12
 1.09851664e-12
 1.09851664e-12
 1.09851664e-12
 1.09851664e-12
 1.09851664e-12
 5.91529750e-13
 5.91529750e-13
 5.91529750e-13
 5.91529750e-13
 5.91529750e-13
 5.91529750e-13
 5.91529750e-13
 5.91529750e-13
 2.57751938e-13
 3.12795658e-13
 3.12795658e-13
 3.12795658e-13
 8.43457814e-16
 8.43457814e-16
 8.43457814e-16
 1.03773768e-13
 1.03773768e-13
 1.03773768e-13
 1.03773768e-13
 1.03773768e-13
 5.79505434e-14
)
)
1
(
101
(
 2.20828396e-23
 9.03934160e-15
 9.03934160e-15
 9.03934160e-15
 9.03934160e-15
 9.03934160e-15
 9.03934160e-15
 9.03934160e-15
 9.03934160e-15
 9.03934160e-15
 9.03934160e-15
 9.03934160e-15
 9.03934160e-15
 9.03934160e-15
 9.03934160e-15
 9.03934160e-15
 9.03934160e-15
 9.03934160e-15
 9.03934160e-15
 9.03934160e-15
 9.03934160e-15
 9.03934160e-15
 9.03934160e-15
 9.03934160e-15
 9.03934160e-15
 9.03934160e-15
 9.03934160e-15
 9.03934160e-15
 9.03934160e-15
 9.03934160e-15
 9.03934160e-15
 9.03934160e-15
 9.03934160e-15
 9.03934160e-15
 9.03934160e-15
 9.03934160e-15
 9.03934160e-15
 9.03934160e-15
 9.03934160e-15
 9.03934160e-15
 5.36273117e-13
 5.36273117e-13
 5.36273117e-13
 5.36273117e-13
 1.32006179e-12
 1.32006179e-12
 1.32006179e-12
 1.32006179e-12
 1.32006179e-12
 1.32006179e-12
 1.32006179e-12
 1.32006179e-12
 1.32006179e-12
 1.32006179e-12
 1.32006179e-12
 1.32006179e-12
 1.32006179e-12
 1.32006179e-12
 1.32088950e-12
 1.32088950e-12
 1.32088950e-12
 1.32088950e-12
 1.32088950e-12
 1.32088950e-12
 1.32088950e-12
 1.32088950e-12
 1.32088950e-12
 1.32088950e-12
 1.09851664e-12
 1.09851664e-12
 1.09851664e-12
 1.09851664e-12
 1.09851664e-12
 1.09851664e-12
 1.09851664e-12
 1.09851664e-12
 1.09851664e-12
 1.09851664e-12
 1.09851664e-12
 1.09851664e-12
 1.09851664e-12
 7.90908703e-13
 5.91529750e-13
 5.91529750e-13
 5.91529750e-13
 5.91529750e-13
 5.91529750e-13
 5.91529750e-13
 5.91529750e-13
 2.57751938e-13
 2.57751938e-13
 1.06157451e-13
 1.06157451e-13
 8.43457814e-16
 8.43457814e-16
 8.43457814e-16
 8.43457814e-16
 1.03773768e-13
 1.03773768e-13
 1.03773768e-13
 1.03773768e-13
)
)
1
(
101
(
 2.20828396e-23
 1.56390995e-14
 1.56390995e-14
 1.56390995e-14
 1.56390995e-14
 1.56390995e-14
 1.56390995e-14
 1.56390995e-14
 1.56390995e-14
 1.56390995e-14
 1.56390995e-14
 1.56390995e-14
 1.56390995e-14
 1.56390995e-14
 1.56390995e-14
 1.56390995e-14
 1.56390995e-14
 1.56390995e-14
 1.56390995e-14
 1.56390995e-14
 1.56390995e-14
 1.56390995e-14
 1.56390995e-14
 1.56390995e-14
 1.56390995e-14
 1.56390995e-14
 1.56390995e-14
 1.56390995e-14
 1.56390995e-14
 1.56390995e-14
 1.56390995e-14
 1.56390995e-14
 1.56390995e-14
 1.56390995e-14
 1.56390995e-14
 1.56390995e-14
 1.56390995e-14
 1.56390995e-14
 1.56390995e-14
 1.56390995e-14
 5.36273117e-13
 5.36273117e-13
 5.36273117e-13
 5.36273117e-13
 5.36273117e-13
 1.32006179e-12
 1.32006179e-12
 1.32006179e-12
 1.32006179e-12
 1.32006179e-12
 1.32006179e-12
 1.32006179e-12
 1.32006179e-12
 1.32006179e-12
 1.32006179e-12
 1.32006179e-12
 1.32006179e-12
 1.32006179e-12
 1.32006179e-12
 1.32088950e-12
 1.32088950e-12
 1.32088950e-12
 1.32088950e-12
 1.32088950e-12
 1.32088950e-12
 1.32088950e-12
 1.32088950e-12
 1.32088950e-12
 1.32088950e-12
 1.09851664e-12
 1.09851664e-12
 1.09851664e-12
 1.09851664e-12
 1.09851664e-12
 1.09851664e-12
 1.09851664e-12
 1.09851664e-12
 1.09851664e-12
 1.09851664e-12
 1.09851664e-12
 1.09851664e-12
 1.09851664e-12
 7.90908703e-13
 7.90908703e-13
 5.91529750e-13
 5.91529750e-13
 5.91529750e-13
 5.91529750e-13
 5.91529750e-13
 2.57751938e-13
 2.57751938e-13
 2.57751938e-13
 1.06157451e-13
 1.06157451e-13
 8.43457814e-16
 8.43457814e-16
 8.43457814e-16
 8.43457814e-16
 8.43457814e-16
 1.03773768e-13
 1.03773768e-13
)
)
1
(
101
(
 2.79673738e-14
 2.79673738e-14
 2.79673738e-14
 2.79673738e-14
 2.79673738e-14
 2.79673738e-14
 2.79673738e-14
 2.79673738e-14
 2.79673738e-14
 2.79673738e-14
 2.79673738e-14
 2.79673738e-14
 2.79673738e-14
 2.79673738e-14
 2.79673738e-14
 2.79673738e-14
 2.79673738e-14
 2.79673738e-14
 2.79673738e-14
 2.79673738e-14
 2.79673738e-14
 2.79673738e-14
 2.79673738e-14
 2.79673738e-14
 2.79673738e-14
 2.79673738e-14
 2.79673738e-14
 2.79673738e-14
 2.79673738e-14
 2.79673738e-14
 2.79673738e-14
 2.79673738e-14
 2.79673738e-14
 2.79673738e-14
 2.79673738e-14
 2.79673738e-14
 2.79673738e-14
 2.79673738e-14
 2.79673738e-14
 2.79673738e-14
 5.36273117e-13
 5.36273117e-13
 5.36273117e-13
 5.36273117e-13
 5.36273117e-13
 5.36273117e-13
 1.32006179e-12
 1.32006179e-12
 1.32006179e-12
 1.32006179e-12
 1.32006179e-12
 1.32006179e-12
 1.32006179e-12
 1.32006179e-12
 1.32006179e-12
 1.32006179e-12
 1.32006179e-12
 1.32006179e-12
 1.32006179e-12
 1.32006179e-12
 1.32006179e-12
 1.32088950e-12
 1.32088950e-12
 1.32088950e-12
 1.32088950e-12
 1.32088950e-12
 1.32088950e-12
 1.32088950e-12
 1.32088950e-12
 1.32088950e-12
 1.32088950e-12
 1.09851664e-12
 1.09851664e-12
 1.09851664e-12
 1.09851664e-12
 1.09851664e-12
 1.09851664e-12
 1.09851664e-12
 1.09851664e-12
 1.09851664e-12
 1.09851664e-12
 1.09851664e-12
 1.09851664e-12
 7.90908703e-13
 7.90908703e-13
 7.90908703e-13
 5.91529750e-13
 5.91529750e-13
 5.91529750e-13
 5.91529750e-13
 2.57751938e-13
 2.57751938e-13
 2.57751938e-13
 1.06157451e-13
 1.06157451e-13
 8.43457814e-16
 8.43457814e-16
 8.43457814e-16
 8.43457814e-16
 8.43457814e-16
 8.43457814e-16
)
)
1
(
101
(
 4.58634061e-14
 4.58634061e-14
 4.58634061e-14
 4.58634061e-14
 4.58634061e-14
 4.58634061e-14
 4.58634061e-14
 4.58634061e-14
 4.58634061e-14
 4.58634061e-14
 4.58634061e-14
 4.58634061e-14
 4.58634061e-14
 4.58634061e-14
 4.58634061e-14
 4.58634061e-14
 4.58634061e-14
 4.58634061e-14
 4.58634061e-14
 4.58634061e-14
 4.58634061e-14
 4.58634061e-14
 4.58634061e-14
 4.58634061e-14
 4.58634061e-14
 4.58634061e-14
 4.58634061e-14
 4.58634061e-14
 4.58634061e-14
 4.58634061e-14
 4.58634061e-14
 4.58634061e-14
 4.58634061e-14
 4.58634061e-14
 4.58634061e-14
 4.58634061e-14
 4.58634061e-14
 4.58634061e-14
 4.58634061e-14
 5.36273117e-13
 5.36273117e-13
 5.36273117e-13
 5.36273117e-13
 5.36273117e-13
 5.36273117e-13
 5.36273117e-13
 5.36273117e-13
 5.36273117e-13
 1.32006179e-12
 1.32006179e-12
 1.32006179e-12
 1.32006179e-12
 1.32006179e-12
 1.32006179e-12
 1.32006179e-12
 1.32006179e-12
 1.32006179e-12
 1.32006179e-12
 1.32006179e-12
 1.32006179e-12
 1.32006179e-12
 1.32006179e-12
 1.32088950e-12
 1.32088950e-12
 1.32088950e-12
 1.32088950e-12
 1.32088950e-12
 1.32088950e-12
 1.32088950e-12
 1.32088950e-12
 1.32088950e-12
 1.32088950e-12
 1.09851664e-12
 1.09851664e-12
 1.09851664e-12
 1.09851664e-12
 1.09851664e-12
 1.09851664e-12
 1.09851664e-12
 1.09851664e-12
 1.09851664e-12
 1.09851664e-12
 1.09851664e-12
 1.09851664e-12
 7.90908703e-13
 7.90908703e-13
 7.90908703e-13
 7.90908703e-13
 3.81115450e-13
 3.81115450e-13
 3.81115450e-13
 2.57751938e-13
 2.57751938e-13
 2.57751938e-13
 1.06157451e-13
 1.06157451e-13
 8.43457814e-16
 8.43457814e-16
 8.43457814e-16