/*--------------------------------*- C++ -*----------------------------------*\
| =========                 |                                                 |
| \\      /  F ield        | OpenFOAM: The Open Source CFD Toolbox           |
|  \\    /   O peration    | Version:  7                                     |
|   \\  /    A nd          | Web:      http://www.OpenFOAM.com               |
|    \\/     M anipulation |                                                 |
\*---------------------------------------------------------------------------*/

FoamFile
{
    version     2.0;
    format      ascii;
    class       dictionary;
    object      Y_CH2OH_table;
}

Y_CH2OH_table
2
(
101
(
1
(
101
(
 1.79193089e-20
 1.79193089e-20
 1.79193089e-20
 1.79193089e-20
 1.79193089e-20
 1.79193089e-20
 1.79193089e-20
 1.79193089e-20
 1.79193089e-20
 1.79193089e-20
 1.79193089e-20
 1.79193089e-20
 1.79193089e-20
 1.79193089e-20
 1.79193089e-20
 1.79193089e-20
 1.79193089e-20
 1.79193089e-20
 1.79193089e-20
 1.79193089e-20
 1.79193089e-20
 1.79193089e-20
 1.79193089e-20
 1.79193089e-20
 1.79193089e-20
 1.79193089e-20
 1.79193089e-20
 1.79193089e-20
 1.79193089e-20
 1.79193089e-20
 1.79193089e-20
 1.79193089e-20
 1.79193089e-20
 1.79193089e-20
 1.79193089e-20
 1.79193089e-20
 1.79193089e-20
 1.79193089e-20
 1.79193089e-20
 1.79193089e-20
 1.79193089e-20
 1.79193089e-20
 1.79193089e-20
 1.79193089e-20
 1.79193089e-20
 3.11437610e-13
 3.11437610e-13
 4.54566791e-13
 4.54566791e-13
 4.54566791e-13
 4.54566791e-13
 4.54566791e-13
 4.54566791e-13
 4.54566791e-13
 4.54566791e-13
 4.54566791e-13
 4.54566791e-13
 4.54566791e-13
 4.54566791e-13
 4.54566791e-13
 4.54566791e-13
 4.54566791e-13
 4.54566791e-13
 2.29329297e-13
 2.29329297e-13
 2.29329297e-13
 2.29329297e-13
 2.29329297e-13
 2.29329297e-13
 2.29329297e-13
 2.29329297e-13
 2.29329297e-13
 2.29329297e-13
 2.29329297e-13
 2.29329297e-13
 1.72044099e-14
 1.72044099e-14
 1.72044099e-14
 1.72044099e-14
 1.72044099e-14
 1.72044099e-14
 1.72044099e-14
 1.38853011e-14
 1.38853011e-14
 1.38853011e-14
 1.38853011e-14
 1.38853011e-14
 1.38853011e-14
 6.20214235e-15
 6.20214235e-15
 6.20214235e-15
 6.20214235e-15
 6.20214235e-15
 6.20214235e-15
 6.20214235e-15
 1.06681672e-15
 1.06681672e-15
 1.06681672e-15
 1.06681672e-15
 1.06681672e-15
 2.77402835e-17
)
)
1
(
101
(
 4.46293113e-18
 4.46293113e-18
 4.46293113e-18
 4.46293113e-18
 4.46293113e-18
 4.46293113e-18
 4.46293113e-18
 4.46293113e-18
 4.46293113e-18
 4.46293113e-18
 4.46293113e-18
 4.46293113e-18
 4.46293113e-18
 4.46293113e-18
 4.46293113e-18
 4.46293113e-18
 4.46293113e-18
 4.46293113e-18
 4.46293113e-18
 4.46293113e-18
 4.46293113e-18
 4.46293113e-18
 4.46293113e-18
 4.46293113e-18
 4.46293113e-18
 4.46293113e-18
 4.46293113e-18
 4.46293113e-18
 4.46293113e-18
 4.46293113e-18
 4.46293113e-18
 4.46293113e-18
 4.46293113e-18
 4.46293113e-18
 4.46293113e-18
 4.46293113e-18
 4.46293113e-18
 4.46293113e-18
 4.46293113e-18
 4.46293113e-18
 4.46293113e-18
 4.46293113e-18
 4.46293113e-18
 4.46293113e-18
 4.46293113e-18
 3.11437610e-13
 3.11437610e-13
 3.11437610e-13
 4.54566791e-13
 4.54566791e-13
 4.54566791e-13
 4.54566791e-13
 4.54566791e-13
 4.54566791e-13
 4.54566791e-13
 4.54566791e-13
 4.54566791e-13
 4.54566791e-13
 4.54566791e-13
 4.54566791e-13
 4.54566791e-13
 4.54566791e-13
 4.54566791e-13
 4.54566791e-13
 4.54566791e-13
 2.29329297e-13
 2.29329297e-13
 2.29329297e-13
 2.29329297e-13
 2.29329297e-13
 2.29329297e-13
 2.29329297e-13
 2.29329297e-13
 2.29329297e-13
 2.29329297e-13
 2.29329297e-13
 2.29329297e-13
 1.72044099e-14
 1.72044099e-14
 1.72044099e-14
 1.72044099e-14
 1.72044099e-14
 1.72044099e-14
 1.38853011e-14
 1.38853011e-14
 1.38853011e-14
 1.38853011e-14
 1.38853011e-14
 1.38853011e-14
 1.38853011e-14
 6.20214235e-15
 6.20214235e-15
 6.20214235e-15
 6.20214235e-15
 6.20214235e-15
 6.20214235e-15
 4.55871167e-15
 1.06681672e-15
 1.06681672e-15
 1.06681672e-15
 4.82622026e-16
)
)
1
(
101
(
 2.61834180e-17
 2.61834180e-17
 2.61834180e-17
 2.61834180e-17
 2.61834180e-17
 2.61834180e-17
 2.61834180e-17
 2.61834180e-17
 2.61834180e-17
 2.61834180e-17
 2.61834180e-17
 2.61834180e-17
 2.61834180e-17
 2.61834180e-17
 2.61834180e-17
 2.61834180e-17
 2.61834180e-17
 2.61834180e-17
 2.61834180e-17
 2.61834180e-17
 2.61834180e-17
 2.61834180e-17
 2.61834180e-17
 2.61834180e-17
 2.61834180e-17
 2.61834180e-17
 2.61834180e-17
 2.61834180e-17
 2.61834180e-17
 2.61834180e-17
 2.61834180e-17
 2.61834180e-17
 2.61834180e-17
 2.61834180e-17
 2.61834180e-17
 2.61834180e-17
 2.61834180e-17
 2.61834180e-17
 2.61834180e-17
 2.61834180e-17
 2.61834180e-17
 2.61834180e-17
 2.61834180e-17
 2.61834180e-17
 3.11437610e-13
 3.11437610e-13
 3.11437610e-13
 3.11437610e-13
 3.11437610e-13
 3.11437610e-13
 4.54566791e-13
 4.54566791e-13
 4.54566791e-13
 4.54566791e-13
 4.54566791e-13
 4.54566791e-13
 4.54566791e-13
 4.54566791e-13
 4.54566791e-13
 4.54566791e-13
 4.54566791e-13
 4.54566791e-13
 4.54566791e-13
 4.54566791e-13
 4.54566791e-13
 4.54566791e-13
 2.29329297e-13
 2.29329297e-13
 2.29329297e-13
 2.29329297e-13
 2.29329297e-13
 2.29329297e-13
 2.29329297e-13
 2.29329297e-13
 2.29329297e-13
 2.29329297e-13
 2.29329297e-13
 2.29329297e-13
 1.72044099e-14
 1.72044099e-14
 1.72044099e-14
 1.72044099e-14
 1.72044099e-14
 1.72044099e-14
 1.72044099e-14
 1.38853011e-14
 1.38853011e-14
 1.38853011e-14
 1.38853011e-14
 1.38853011e-14
 1.38853011e-14
 6.20214235e-15
 6.20214235e-15
 6.20214235e-15
 6.20214235e-15
 6.20214235e-15
 6.20214235e-15
 4.55871167e-15
 4.55871167e-15
 2.13272601e-15
 2.13272601e-15
)
)
1
(
101
(
 5.09568906e-17
 5.09568906e-17
 5.09568906e-17
 5.09568906e-17
 5.09568906e-17
 5.09568906e-17
 5.09568906e-17
 5.09568906e-17
 5.09568906e-17
 5.09568906e-17
 5.09568906e-17
 5.09568906e-17
 5.09568906e-17
 5.09568906e-17
 5.09568906e-17
 5.09568906e-17
 5.09568906e-17
 5.09568906e-17
 5.09568906e-17
 5.09568906e-17
 5.09568906e-17
 5.09568906e-17
 5.09568906e-17
 5.09568906e-17
 5.09568906e-17
 5.09568906e-17
 5.09568906e-17
 5.09568906e-17
 5.09568906e-17
 5.09568906e-17
 5.09568906e-17
 5.09568906e-17
 5.09568906e-17
 5.09568906e-17
 5.09568906e-17
 5.09568906e-17
 5.09568906e-17
 5.09568906e-17
 5.09568906e-17
 5.09568906e-17
 5.09568906e-17
 5.09568906e-17
 5.09568906e-17
 5.09568906e-17
 7.53830822e-13
 3.11437610e-13
 3.11437610e-13
 3.11437610e-13
 3.11437610e-13
 3.11437610e-13
 3.11437610e-13
 4.54566791e-13
 4.54566791e-13
 4.54566791e-13
 4.54566791e-13
 4.54566791e-13
 4.54566791e-13
 4.54566791e-13
 4.54566791e-13
 4.54566791e-13
 4.54566791e-13
 4.54566791e-13
 4.54566791e-13
 4.54566791e-13
 4.54566791e-13
 4.54566791e-13
 4.54566791e-13
 2.29329297e-13
 2.29329297e-13
 2.29329297e-13
 2.29329297e-13
 2.29329297e-13
 2.29329297e-13
 2.29329297e-13
 2.29329297e-13
 2.29329297e-13
 2.29329297e-13
 2.29329297e-13
 2.29329297e-13
 3.85309072e-14
 1.72044099e-14
 1.72044099e-14
 1.72044099e-14
 1.72044099e-14
 1.72044099e-14
 1.72044099e-14
 1.38853011e-14
 1.38853011e-14
 1.38853011e-14
 1.38853011e-14
 1.38853011e-14
 1.38853011e-14
 1.38853011e-14
 6.20214235e-15
 6.20214235e-15
 6.20214235e-15
 6.20214235e-15
 6.20214235e-15
 4.55871167e-15
 6.23666576e-15
 6.23666576e-15
)
)
1
(
101
(
 1.17209612e-16
 1.17209612e-16
 1.17209612e-16
 1.17209612e-16
 1.17209612e-16
 1.17209612e-16
 1.17209612e-16
 1.17209612e-16
 1.17209612e-16
 1.17209612e-16
 1.17209612e-16
 1.17209612e-16
 1.17209612e-16
 1.17209612e-16
 1.17209612e-16
 1.17209612e-16
 1.17209612e-16
 1.17209612e-16
 1.17209612e-16
 1.17209612e-16
 1.17209612e-16
 1.17209612e-16
 1.17209612e-16
 1.17209612e-16
 1.17209612e-16
 1.17209612e-16
 1.17209612e-16
 1.17209612e-16
 1.17209612e-16
 1.17209612e-16
 1.17209612e-16
 1.17209612e-16
 1.17209612e-16
 1.17209612e-16
 1.17209612e-16
 1.17209612e-16
 1.17209612e-16
 1.17209612e-16
 1.17209612e-16
 1.17209612e-16
 1.17209612e-16
 1.17209612e-16
 1.17209612e-16
 1.17209612e-16
 7.53830822e-13
 7.53830822e-13
 7.53830822e-13
 3.11437610e-13
 3.11437610e-13
 3.11437610e-13
 3.11437610e-13
 3.11437610e-13
 3.11437610e-13
 4.54566791e-13
 4.54566791e-13
 4.54566791e-13
 4.54566791e-13
 4.54566791e-13
 4.54566791e-13
 4.54566791e-13
 4.54566791e-13
 4.54566791e-13
 4.54566791e-13
 4.54566791e-13
 4.54566791e-13
 4.54566791e-13
 4.54566791e-13
 4.54566791e-13
 2.29329297e-13
 2.29329297e-13
 2.29329297e-13
 2.29329297e-13
 2.29329297e-13
 2.29329297e-13
 2.29329297e-13
 2.29329297e-13
 2.29329297e-13
 2.29329297e-13
 2.29329297e-13
 2.29329297e-13
 3.85309072e-14
 1.72044099e-14
 1.72044099e-14
 1.72044099e-14
 1.72044099e-14
 1.72044099e-14
 1.72044099e-14
 1.72044099e-14
 1.38853011e-14
 1.38853011e-14
 1.38853011e-14
 1.38853011e-14
 1.38853011e-14
 1.38853011e-14
 2.23883965e-14
 6.20214235e-15
 6.20214235e-15
 6.20214235e-15
 7.42558253e-15
 7.42558253e-15
 6.23666576e-15
)
)
1
(
101
(
 1.63673280e-16
 1.63673280e-16
 1.63673280e-16
 1.63673280e-16
 1.63673280e-16
 1.63673280e-16
 1.63673280e-16
 1.63673280e-16
 1.63673280e-16
 1.63673280e-16
 1.63673280e-16
 1.63673280e-16
 1.63673280e-16
 1.63673280e-16
 1.63673280e-16
 1.63673280e-16
 1.63673280e-16
 1.63673280e-16
 1.63673280e-16
 1.63673280e-16
 1.63673280e-16
 1.63673280e-16
 1.63673280e-16
 1.63673280e-16
 1.63673280e-16
 1.63673280e-16
 1.63673280e-16
 1.63673280e-16
 1.63673280e-16
 1.63673280e-16
 1.63673280e-16
 1.63673280e-16
 1.63673280e-16
 1.63673280e-16
 1.63673280e-16
 1.63673280e-16
 1.63673280e-16
 1.63673280e-16
 1.63673280e-16
 1.63673280e-16
 1.63673280e-16
 1.63673280e-16
 6.30364784e-15
 7.53830822e-13
 7.53830822e-13
 7.53830822e-13
 7.53830822e-13
 7.53830822e-13
 3.11437610e-13
 3.11437610e-13
 3.11437610e-13
 3.11437610e-13
 3.11437610e-13
 3.11437610e-13
 4.54566791e-13
 4.54566791e-13
 4.54566791e-13
 4.54566791e-13
 4.54566791e-13
 4.54566791e-13
 4.54566791e-13
 4.54566791e-13
 4.54566791e-13
 4.54566791e-13
 4.54566791e-13
 4.54566791e-13
 4.54566791e-13
 4.54566791e-13
 4.54566791e-13
 4.54566791e-13
 2.29329297e-13
 2.29329297e-13
 2.29329297e-13
 2.29329297e-13
 2.29329297e-13
 2.29329297e-13
 2.29329297e-13
 2.29329297e-13
 2.29329297e-13
 2.29329297e-13
 2.29329297e-13
 3.85309072e-14
 3.85309072e-14
 1.72044099e-14
 1.72044099e-14
 1.72044099e-14
 1.72044099e-14
 1.72044099e-14
 1.72044099e-14
 1.38853011e-14
 1.38853011e-14
 1.38853011e-14
 1.38853011e-14
 1.38853011e-14
 1.38853011e-14
 2.23883965e-14
 2.23883965e-14
 1.36232666e-14
 1.36232666e-14
 7.42558253e-15
 7.42558253e-15
)
)
1
(
101
(
 3.97349615e-16
 3.97349615e-16
 3.97349615e-16
 3.97349615e-16
 3.97349615e-16
 3.97349615e-16
 3.97349615e-16
 3.97349615e-16
 3.97349615e-16
 3.97349615e-16
 3.97349615e-16
 3.97349615e-16
 3.97349615e-16
 3.97349615e-16
 3.97349615e-16
 3.97349615e-16
 3.97349615e-16
 3.97349615e-16
 3.97349615e-16
 3.97349615e-16
 3.97349615e-16
 3.97349615e-16
 3.97349615e-16
 3.97349615e-16
 3.97349615e-16
 3.97349615e-16
 3.97349615e-16
 3.97349615e-16
 3.97349615e-16
 3.97349615e-16
 3.97349615e-16
 3.97349615e-16
 3.97349615e-16
 6.30364784e-15
 6.30364784e-15
 6.30364784e-15
 6.30364784e-15
 6.30364784e-15
 6.30364784e-15
 6.30364784e-15
 6.30364784e-15
 6.30364784e-15
 6.30364784e-15
 7.53830822e-13
 7.53830822e-13
 7.53830822e-13
 7.53830822e-13
 7.53830822e-13
 7.53830822e-13
 3.11437610e-13
 3.11437610e-13
 3.11437610e-13
 3.11437610e-13
 3.11437610e-13
 3.11437610e-13
 3.11437610e-13
 4.54566791e-13
 4.54566791e-13
 4.54566791e-13
 4.54566791e-13
 4.54566791e-13
 4.54566791e-13
 4.54566791e-13
 4.54566791e-13
 4.54566791e-13
 4.54566791e-13
 4.54566791e-13
 4.54566791e-13
 4.54566791e-13
 4.54566791e-13
 4.54566791e-13
 2.29329297e-13
 2.29329297e-13
 2.29329297e-13
 2.29329297e-13
 2.29329297e-13
 2.29329297e-13
 2.29329297e-13
 2.29329297e-13
 2.29329297e-13
 2.29329297e-13
 2.29329297e-13
 3.85309072e-14
 3.85309072e-14
 1.72044099e-14
 1.72044099e-14
 1.72044099e-14
 1.72044099e-14
 1.72044099e-14
 1.72044099e-14
 1.72044099e-14
 1.38853011e-14
 1.38853011e-14
 1.38853011e-14
 1.38853011e-14
 1.38853011e-14
 2.23883965e-14
 2.23883965e-14
 1.36232666e-14
 1.36232666e-14
 7.42558253e-15
)
)
1
(
101
(
 5.09924987e-16
 5.09924987e-16
 5.09924987e-16
 5.09924987e-16
 5.09924987e-16
 5.09924987e-16
 5.09924987e-16
 5.09924987e-16
 5.09924987e-16
 5.09924987e-16
 5.09924987e-16
 5.09924987e-16
 5.09924987e-16
 5.09924987e-16
 5.09924987e-16
 5.09924987e-16
 5.09924987e-16
 5.09924987e-16
 5.09924987e-16
 5.09924987e-16
 5.09924987e-16
 5.09924987e-16
 5.09924987e-16
 5.09924987e-16
 5.09924987e-16
 5.09924987e-16
 6.30364784e-15
 6.30364784e-15
 6.30364784e-15
 6.30364784e-15
 6.30364784e-15
 6.30364784e-15
 6.30364784e-15
 6.30364784e-15
 6.30364784e-15
 6.30364784e-15
 6.30364784e-15
 6.30364784e-15
 6.30364784e-15
 6.30364784e-15
 6.30364784e-15
 6.30364784e-15
 6.30364784e-15
 7.53830822e-13
 7.53830822e-13
 7.53830822e-13
 7.53830822e-13
 7.53830822e-13
 7.53830822e-13
 7.53830822e-13
 3.11437610e-13
 3.11437610e-13
 3.11437610e-13
 3.11437610e-13
 3.11437610e-13
 3.11437610e-13
 3.11437610e-13
 4.54566791e-13
 4.54566791e-13
 4.54566791e-13
 4.54566791e-13
 4.54566791e-13
 4.54566791e-13
 4.54566791e-13
 4.54566791e-13
 4.54566791e-13
 4.54566791e-13
 4.54566791e-13
 4.54566791e-13
 4.54566791e-13
 4.54566791e-13
 4.54566791e-13
 2.29329297e-13
 2.29329297e-13
 2.29329297e-13
 2.29329297e-13
 2.29329297e-13
 2.29329297e-13
 2.29329297e-13
 2.29329297e-13
 2.29329297e-13
 2.29329297e-13
 2.29329297e-13
 3.85309072e-14
 3.85309072e-14
 3.85309072e-14
 1.72044099e-14
 1.72044099e-14
 1.72044099e-14
 1.72044099e-14
 1.72044099e-14
 1.72044099e-14
 1.76871294e-14
 1.38853011e-14
 1.38853011e-14
 1.38853011e-14
 3.39590348e-14
 3.39590348e-14
 3.39590348e-14
 1.36232666e-14
 1.36232666e-14
)
)
1
(
101
(
 7.10077812e-16
 7.10077812e-16
 7.10077812e-16
 7.10077812e-16
 7.10077812e-16
 7.10077812e-16
 7.10077812e-16
 7.10077812e-16
 7.10077812e-16
 7.10077812e-16
 7.10077812e-16
 7.10077812e-16
 7.10077812e-16
 7.10077812e-16
 7.10077812e-16
 7.10077812e-16
 7.10077812e-16
 7.10077812e-16
 7.10077812e-16
 6.30364784e-15
 6.30364784e-15
 6.30364784e-15
 6.30364784e-15
 6.30364784e-15
 6.30364784e-15
 6.30364784e-15
 6.30364784e-15
 6.30364784e-15
 6.30364784e-15
 6.30364784e-15
 6.30364784e-15
 6.30364784e-15
 6.30364784e-15
 6.30364784e-15
 6.30364784e-15
 6.30364784e-15
 6.30364784e-15
 6.30364784e-15
 6.30364784e-15
 6.30364784e-15
 6.30364784e-15
 6.30364784e-15
 7.53830822e-13
 7.53830822e-13
 7.53830822e-13
 7.53830822e-13
 7.53830822e-13
 7.53830822e-13
 7.53830822e-13
 7.53830822e-13
 7.53830822e-13
 3.11437610e-13
 3.11437610e-13
 3.11437610e-13
 3.11437610e-13
 3.11437610e-13
 3.11437610e-13
 3.11437610e-13
 3.11437610e-13
 4.54566791e-13
 4.54566791e-13
 4.54566791e-13
 4.54566791e-13
 4.54566791e-13
 4.54566791e-13
 4.54566791e-13
 4.54566791e-13
 4.54566791e-13
 4.54566791e-13
 4.54566791e-13
 4.54566791e-13
 4.54566791e-13
 4.54566791e-13
 2.29329297e-13
 2.29329297e-13
 2.29329297e-13
 2.29329297e-13
 2.29329297e-13
 2.29329297e-13
 2.29329297e-13
 2.29329297e-13
 2.29329297e-13
 2.29329297e-13
 2.29329297e-13
 3.85309072e-14
 3.85309072e-14
 3.85309072e-14
 1.72044099e-14
 1.72044099e-14
 1.72044099e-14
 1.72044099e-14
 1.72044099e-14
 1.72044099e-14
 1.76871294e-14
 1.76871294e-14
 3.46663827e-14
 3.46663827e-14
 3.39590348e-14
 3.39590348e-14
 3.39590348e-14
 3.39590348e-14
)
)
1
(
101
(
 1.89146199e-15
 1.89146199e-15
 1.89146199e-15
 1.89146199e-15
 1.89146199e-15
 1.89146199e-15
 1.89146199e-15
 1.89146199e-15
 1.89146199e-15
 1.89146199e-15
 1.89146199e-15
 1.89146199e-15
 1.89146199e-15
 1.89146199e-15
 6.30364784e-15
 6.30364784e-15
 6.30364784e-15
 6.30364784e-15
 6.30364784e-15
 6.30364784e-15
 6.30364784e-15
 6.30364784e-15
 6.30364784e-15
 6.30364784e-15
 6.30364784e-15
 6.30364784e-15
 6.30364784e-15
 6.30364784e-15
 6.30364784e-15
 6.30364784e-15
 6.30364784e-15
 6.30364784e-15
 6.30364784e-15
 6.30364784e-15
 6.30364784e-15
 6.30364784e-15
 6.30364784e-15
 6.30364784e-15
 6.30364784e-15
 6.30364784e-15
 6.30364784e-15
 6.30364784e-15
 7.53830822e-13
 7.53830822e-13
 7.53830822e-13
 7.53830822e-13
 7.53830822e-13
 7.53830822e-13
 7.53830822e-13
 7.53830822e-13
 7.53830822e-13
 7.53830822e-13
 3.11437610e-13
 3.11437610e-13
 3.11437610e-13
 3.11437610e-13
 3.11437610e-13
 3.11437610e-13
 3.11437610e-13
 3.11437610e-13
 4.54566791e-13
 4.54566791e-13
 4.54566791e-13
 4.54566791e-13
 4.54566791e-13
 4.54566791e-13
 4.54566791e-13
 4.54566791e-13
 4.54566791e-13
 4.54566791e-13
 4.54566791e-13
 4.54566791e-13
 4.54566791e-13
 4.54566791e-13
 4.54566791e-13
 2.29329297e-13
 2.29329297e-13
 2.29329297e-13
 2.29329297e-13
 2.29329297e-13
 2.29329297e-13
 2.29329297e-13
 2.29329297e-13
 2.29329297e-13
 2.29329297e-13
 3.85309072e-14
 3.85309072e-14
 3.85309072e-14
 3.85309072e-14
 1.72044099e-14
 1.72044099e-14
 1.72044099e-14
 1.72044099e-14
 1.72044099e-14
 1.76871294e-14
 1.76871294e-14
 3.46663827e-14
 3.46663827e-14
 3.39590348e-14
 3.39590348e-14
 3.39590348e-14
)
)
1
(
101
(
 2.00316999e-15
 2.00316999e-15
 2.00316999e-15
 2.00316999e-15
 2.00316999e-15
 2.00316999e-15
 2.00316999e-15
 2.00316999e-15
 2.00316999e-15
 6.30364784e-15
 6.30364784e-15
 6.30364784e-15
 6.30364784e-15
 6.30364784e-15
 6.30364784e-15
 6.30364784e-15
 6.30364784e-15
 6.30364784e-15
 6.30364784e-15
 6.30364784e-15
 6.30364784e-15
 6.30364784e-15
 6.30364784e-15
 6.30364784e-15
 6.30364784e-15
 6.30364784e-15
 6.30364784e-15
 6.30364784e-15
 6.30364784e-15
 6.30364784e-15
 6.30364784e-15
 6.30364784e-15
 6.30364784e-15
 6.30364784e-15
 6.30364784e-15
 6.30364784e-15
 6.30364784e-15
 6.30364784e-15
 6.30364784e-15
 6.30364784e-15
 6.30364784e-15
 6.30364784e-15
 7.53830822e-13
 7.53830822e-13
 7.53830822e-13
 7.53830822e-13
 7.53830822e-13
 7.53830822e-13
 7.53830822e-13
 7.53830822e-13
 7.53830822e-13
 7.53830822e-13
 7.53830822e-13
 7.53830822e-13
 3.11437610e-13
 3.11437610e-13
 3.11437610e-13
 3.11437610e-13
 3.11437610e-13
 3.11437610e-13
 3.11437610e-13
 3.11437610e-13
 4.54566791e-13
 4.54566791e-13
 4.54566791e-13
 4.54566791e-13
 4.54566791e-13
 4.54566791e-13
 4.54566791e-13
 4.54566791e-13
 4.54566791e-13
 4.54566791e-13
 4.54566791e-13
 4.54566791e-13
 4.54566791e-13
 4.54566791e-13
 2.29329297e-13
 2.29329297e-13
 2.29329297e-13
 2.29329297e-13
 2.29329297e-13
 2.29329297e-13
 2.29329297e-13
 2.29329297e-13
 2.29329297e-13
 2.29329297e-13
 3.85309072e-14
 3.85309072e-14
 3.85309072e-14
 3.85309072e-14
 1.97995748e-14
 1.72044099e-14
 1.72044099e-14
 1.72044099e-14
 1.72044099e-14
 1.76871294e-14
 1.76871294e-14
 3.46663827e-14
 3.46663827e-14
 3.39590348e-14
 3.39590348e-14
)
)
1
(
101
(
 2.95078133e-15
 2.95078133e-15
 2.95078133e-15
 2.95078133e-15
 2.95078133e-15
 2.95078133e-15
 6.30364784e-15
 6.30364784e-15
 6.30364784e-15
 6.30364784e-15
 6.30364784e-15
 6.30364784e-15
 6.30364784e-15
 6.30364784e-15
 6.30364784e-15
 6.30364784e-15
 6.30364784e-15
 6.30364784e-15
 6.30364784e-15
 6.30364784e-15
 6.30364784e-15
 6.30364784e-15
 6.30364784e-15
 6.30364784e-15
 6.30364784e-15
 6.30364784e-15
 6.30364784e-15
 6.30364784e-15
 6.30364784e-15
 6.30364784e-15
 6.30364784e-15
 6.30364784e-15
 6.30364784e-15
 6.30364784e-15
 6.30364784e-15
 6.30364784e-15
 6.30364784e-15
 6.30364784e-15
 6.30364784e-15
 6.30364784e-15
 6.30364784e-15
 6.30364784e-15
 7.53830822e-13
 7.53830822e-13
 7.53830822e-13
 7.53830822e-13
 7.53830822e-13
 7.53830822e-13
 7.53830822e-13
 7.53830822e-13
 7.53830822e-13
 7.53830822e-13
 7.53830822e-13
 7.53830822e-13
 7.53830822e-13
 3.11437610e-13
 3.11437610e-13
 3.11437610e-13
 3.11437610e-13
 3.11437610e-13
 3.11437610e-13
 3.11437610e-13
 3.11437610e-13
 4.54566791e-13
 4.54566791e-13
 4.54566791e-13
 4.54566791e-13
 4.54566791e-13
 4.54566791e-13
 4.54566791e-13
 4.54566791e-13
 4.54566791e-13
 4.54566791e-13
 4.54566791e-13
 4.54566791e-13
 4.54566791e-13
 4.54566791e-13
 2.29329297e-13
 2.29329297e-13
 2.29329297e-13
 2.29329297e-13
 2.29329297e-13
 2.29329297e-13
 2.29329297e-13
 2.29329297e-13
 2.29329297e-13
 2.29329297e-13
 3.85309072e-14
 3.85309072e-14
 3.85309072e-14
 3.85309072e-14
 1.97995748e-14
 1.97995748e-14
 7.17319049e-14
 7.17319049e-14
 7.17319049e-14
 1.76871294e-14
 1.76871294e-14
 3.46663827e-14
 3.46663827e-14
 3.39590348e-14
)
)
1
(
101
(
 4.73362835e-15
 4.73362835e-15
 4.73362835e-15
 6.30364784e-15
 6.30364784e-15
 6.30364784e-15
 6.30364784e-15
 6.30364784e-15
 6.30364784e-15
 6.30364784e-15
 6.30364784e-15
 6.30364784e-15
 6.30364784e-15
 6.30364784e-15
 6.30364784e-15
 6.30364784e-15
 6.30364784e-15
 6.30364784e-15
 6.30364784e-15
 6.30364784e-15
 6.30364784e-15
 6.30364784e-15
 6.30364784e-15
 6.30364784e-15
 6.30364784e-15
 6.30364784e-15
 6.30364784e-15
 6.30364784e-15
 6.30364784e-15
 6.30364784e-15
 6.30364784e-15
 6.30364784e-15
 6.30364784e-15
 6.30364784e-15
 6.30364784e-15
 6.30364784e-15
 6.30364784e-15
 6.30364784e-15
 6.30364784e-15
 6.30364784e-15
 6.30364784e-15
 2.04447178e-12
 7.53830822e-13
 7.53830822e-13
 7.53830822e-13
 7.53830822e-13
 7.53830822e-13
 7.53830822e-13
 7.53830822e-13
 7.53830822e-13
 7.53830822e-13
 7.53830822e-13
 7.53830822e-13
 7.53830822e-13
 7.53830822e-13
 7.53830822e-13
 3.11437610e-13
 3.11437610e-13
 3.11437610e-13
 3.11437610e-13
 3.11437610e-13
 3.11437610e-13
 3.11437610e-13
 3.11437610e-13
 3.11437610e-13
 4.54566791e-13
 4.54566791e-13
 4.54566791e-13
 4.54566791e-13
 4.54566791e-13
 4.54566791e-13
 4.54566791e-13
 4.54566791e-13
 4.54566791e-13
 4.54566791e-13
 4.54566791e-13
 4.54566791e-13
 4.54566791e-13
 2.29329297e-13
 2.29329297e-13
 2.29329297e-13
 2.29329297e-13
 2.29329297e-13
 2.29329297e-13
 2.29329297e-13
 2.29329297e-13
 2.29329297e-13
 2.29329297e-13
 3.85309072e-14
 3.85309072e-14
 3.85309072e-14
 3.85309072e-14
 1.97995748e-14
 1.97995748e-14
 7.17319049e-14
 7.17319049e-14
 7.17319049e-14
 7.17319049e-14
 1.76871294e-14
 3.46663827e-14
 3.46663827e-14
)
)
1
(
101
(
 1.52423118e-15
 1.52423118e-15
 6.30364784e-15
 6.30364784e-15
 6.30364784e-15
 6.30364784e-15
 6.30364784e-15
 6.30364784e-15
 6.30364784e-15
 6.30364784e-15
 6.30364784e-15
 6.30364784e-15
 6.30364784e-15
 6.30364784e-15
 6.30364784e-15
 6.30364784e-15
 6.30364784e-15
 6.30364784e-15
 6.30364784e-15
 6.30364784e-15
 6.30364784e-15
 6.30364784e-15
 6.30364784e-15
 6.30364784e-15
 6.30364784e-15
 6.30364784e-15
 6.30364784e-15
 6.30364784e-15
 6.30364784e-15
 6.30364784e-15
 6.30364784e-15
 6.30364784e-15
 6.30364784e-15
 6.30364784e-15
 6.30364784e-15
 6.30364784e-15
 6.30364784e-15
 6.30364784e-15
 6.30364784e-15
 6.30364784e-15
 6.30364784e-15
 2.04447178e-12
 2.04447178e-12
 7.53830822e-13
 7.53830822e-13
 7.53830822e-13
 7.53830822e-13
 7.53830822e-13
 7.53830822e-13
 7.53830822e-13
 7.53830822e-13
 7.53830822e-13
 7.53830822e-13
 7.53830822e-13
 7.53830822e-13
 7.53830822e-13
 7.53830822e-13
 3.11437610e-13
 3.11437610e-13
 3.11437610e-13
 3.11437610e-13
 3.11437610e-13
 3.11437610e-13
 3.11437610e-13
 3.11437610e-13
 3.11437610e-13
 4.54566791e-13
 4.54566791e-13
 4.54566791e-13
 4.54566791e-13
 4.54566791e-13
 4.54566791e-13
 4.54566791e-13
 4.54566791e-13
 4.54566791e-13
 4.54566791e-13
 4.54566791e-13
 4.54566791e-13
 4.54566791e-13
 4.54566791e-13
 2.29329297e-13
 2.29329297e-13
 2.29329297e-13
 2.29329297e-13
 2.29329297e-13
 2.29329297e-13
 2.29329297e-13
 2.29329297e-13
 5.79376385e-14
 3.85309072e-14
 3.85309072e-14
 3.85309072e-14
 2.22323804e-13
 2.22323804e-13
 2.22323804e-13
 7.17319049e-14
 7.17319049e-14
 7.17319049e-14
 7.17319049e-14
 7.17319049e-14
 3.46663827e-14
)
)
1
(
101
(
 2.02920084e-23
 6.30364784e-15
 6.30364784e-15
 6.30364784e-15
 6.30364784e-15
 6.30364784e-15
 6.30364784e-15
 6.30364784e-15
 6.30364784e-15
 6.30364784e-15
 6.30364784e-15
 6.30364784e-15
 6.30364784e-15
 6.30364784e-15
 6.30364784e-15
 6.30364784e-15
 6.30364784e-15
 6.30364784e-15
 6.30364784e-15
 6.30364784e-15
 6.30364784e-15
 6.30364784e-15
 6.30364784e-15
 6.30364784e-15
 6.30364784e-15
 6.30364784e-15
 6.30364784e-15
 6.30364784e-15
 6.30364784e-15
 6.30364784e-15
 6.30364784e-15
 6.30364784e-15
 6.30364784e-15
 6.30364784e-15
 6.30364784e-15
 6.30364784e-15
 6.30364784e-15
 6.30364784e-15
 6.30364784e-15
 6.30364784e-15
 2.04447178e-12
 2.04447178e-12
 2.04447178e-12
 2.04447178e-12
 7.53830822e-13
 7.53830822e-13
 7.53830822e-13
 7.53830822e-13
 7.53830822e-13
 7.53830822e-13
 7.53830822e-13
 7.53830822e-13
 7.53830822e-13
 7.53830822e-13
 7.53830822e-13
 7.53830822e-13
 7.53830822e-13
 7.53830822e-13
 3.11437610e-13
 3.11437610e-13
 3.11437610e-13
 3.11437610e-13
 3.11437610e-13
 3.11437610e-13
 3.11437610e-13
 3.11437610e-13
 3.11437610e-13
 3.11437610e-13
 4.54566791e-13
 4.54566791e-13
 4.54566791e-13
 4.54566791e-13
 4.54566791e-13
 4.54566791e-13
 4.54566791e-13
 4.54566791e-13
 4.54566791e-13
 4.54566791e-13
 4.54566791e-13
 4.54566791e-13
 4.54566791e-13
 9.89038182e-14
 2.29329297e-13
 2.29329297e-13
 2.29329297e-13
 2.29329297e-13
 2.29329297e-13
 2.29329297e-13
 2.29329297e-13
 5.79376385e-14
 5.79376385e-14
 4.67953356e-14
 4.67953356e-14
 2.22323804e-13
 2.22323804e-13
 2.22323804e-13
 2.22323804e-13
 7.17319049e-14
 7.17319049e-14
 7.17319049e-14
 7.17319049e-14
)
)
1
(
101
(
 2.02920084e-23
 1.00754538e-14
 1.00754538e-14
 1.00754538e-14
 1.00754538e-14
 1.00754538e-14
 1.00754538e-14
 1.00754538e-14
 1.00754538e-14
 1.00754538e-14
 1.00754538e-14
 1.00754538e-14
 1.00754538e-14
 1.00754538e-14
 1.00754538e-14
 1.00754538e-14
 1.00754538e-14
 1.00754538e-14
 1.00754538e-14
 1.00754538e-14
 1.00754538e-14
 1.00754538e-14
 1.00754538e-14
 1.00754538e-14
 1.00754538e-14
 1.00754538e-14
 1.00754538e-14
 1.00754538e-14
 1.00754538e-14
 1.00754538e-14
 1.00754538e-14
 1.00754538e-14
 1.00754538e-14
 1.00754538e-14
 1.00754538e-14
 1.00754538e-14
 1.00754538e-14
 1.00754538e-14
 1.00754538e-14
 1.00754538e-14
 2.04447178e-12
 2.04447178e-12
 2.04447178e-12
 2.04447178e-12
 2.04447178e-12
 7.53830822e-13
 7.53830822e-13
 7.53830822e-13
 7.53830822e-13
 7.53830822e-13
 7.53830822e-13
 7.53830822e-13
 7.53830822e-13
 7.53830822e-13
 7.53830822e-13
 7.53830822e-13
 7.53830822e-13
 7.53830822e-13
 7.53830822e-13
 3.11437610e-13
 3.11437610e-13
 3.11437610e-13
 3.11437610e-13
 3.11437610e-13
 3.11437610e-13
 3.11437610e-13
 3.11437610e-13
 3.11437610e-13
 3.11437610e-13
 4.54566791e-13
 4.54566791e-13
 4.54566791e-13
 4.54566791e-13
 4.54566791e-13
 4.54566791e-13
 4.54566791e-13
 4.54566791e-13
 4.54566791e-13
 4.54566791e-13
 4.54566791e-13
 4.54566791e-13
 4.54566791e-13
 9.89038182e-14
 9.89038182e-14
 2.29329297e-13
 2.29329297e-13
 2.29329297e-13
 2.29329297e-13
 2.29329297e-13
 5.79376385e-14
 5.79376385e-14
 5.79376385e-14
 4.67953356e-14
 4.67953356e-14
 2.22323804e-13
 2.22323804e-13
 2.22323804e-13
 2.22323804e-13
 2.22323804e-13
 7.17319049e-14
 7.17319049e-14
)
)
1
(
101
(
 1.67044906e-14
 1.67044906e-14
 1.67044906e-14
 1.67044906e-14
 1.67044906e-14
 1.67044906e-14
 1.67044906e-14
 1.67044906e-14
 1.67044906e-14
 1.67044906e-14
 1.67044906e-14
 1.67044906e-14
 1.67044906e-14
 1.67044906e-14
 1.67044906e-14
 1.67044906e-14
 1.67044906e-14
 1.67044906e-14
 1.67044906e-14
 1.67044906e-14
 1.67044906e-14
 1.67044906e-14
 1.67044906e-14
 1.67044906e-14
 1.67044906e-14
 1.67044906e-14
 1.67044906e-14
 1.67044906e-14
 1.67044906e-14
 1.67044906e-14
 1.67044906e-14
 1.67044906e-14
 1.67044906e-14
 1.67044906e-14
 1.67044906e-14
 1.67044906e-14
 1.67044906e-14
 1.67044906e-14
 1.67044906e-14
 1.67044906e-14
 2.04447178e-12
 2.04447178e-12
 2.04447178e-12
 2.04447178e-12
 2.04447178e-12
 2.04447178e-12
 7.53830822e-13
 7.53830822e-13
 7.53830822e-13
 7.53830822e-13
 7.53830822e-13
 7.53830822e-13
 7.53830822e-13
 7.53830822e-13
 7.53830822e-13
 7.53830822e-13
 7.53830822e-13
 7.53830822e-13
 7.53830822e-13
 7.53830822e-13
 7.53830822e-13
 3.11437610e-13
 3.11437610e-13
 3.11437610e-13
 3.11437610e-13
 3.11437610e-13
 3.11437610e-13
 3.11437610e-13
 3.11437610e-13
 3.11437610e-13
 3.11437610e-13
 4.54566791e-13
 4.54566791e-13
 4.54566791e-13
 4.54566791e-13
 4.54566791e-13
 4.54566791e-13
 4.54566791e-13
 4.54566791e-13
 4.54566791e-13
 4.54566791e-13
 4.54566791e-13
 4.54566791e-13
 9.89038182e-14
 9.89038182e-14
 9.89038182e-14
 2.29329297e-13
 2.29329297e-13
 2.29329297e-13
 2.29329297e-13
 5.79376385e-14
 5.79376385e-14
 5.79376385e-14
 4.67953356e-14
 4.67953356e-14
 2.22323804e-13
 2.22323804e-13
 2.22323804e-13
 2.22323804e-13
 2.22323804e-13
 2.22323804e-13
)
)
1
(
101
(
 2.56288586e-14
 2.56288586e-14
 2.56288586e-14
 2.56288586e-14
 2.56288586e-14
 2.56288586e-14
 2.56288586e-14
 2.56288586e-14
 2.56288586e-14
 2.56288586e-14
 2.56288586e-14
 2.56288586e-14
 2.56288586e-14
 2.56288586e-14
 2.56288586e-14
 2.56288586e-14
 2.56288586e-14
 2.56288586e-14
 2.56288586e-14
 2.56288586e-14
 2.56288586e-14
 2.56288586e-14
 2.56288586e-14
 2.56288586e-14
 2.56288586e-14
 2.56288586e-14
 2.56288586e-14
 2.56288586e-14
 2.56288586e-14
 2.56288586e-14
 2.56288586e-14
 2.56288586e-14
 2.56288586e-14
 2.56288586e-14
 2.56288586e-14
 2.56288586e-14
 2.56288586e-14
 2.56288586e-14
 2.56288586e-14
 2.04447178e-12
 2.04447178e-12
 2.04447178e-12
 2.04447178e-12
 2.04447178e-12
 2.04447178e-12
 2.04447178e-12
 2.04447178e-12
 2.04447178e-12
 7.53830822e-13
 7.53830822e-13
 7.53830822e-13
 7.53830822e-13
 7.53830822e-13
 7.53830822e-13
 7.53830822e-13
 7.53830822e-13
 7.53830822e-13
 7.53830822e-13
 7.53830822e-13
 7.53830822e-13
 7.53830822e-13
 7.53830822e-13
 3.11437610e-13
 3.11437610e-13
 3.11437610e-13
 3.11437610e-13
 3.11437610e-13
 3.11437610e-13
 3.11437610e-13
 3.11437610e-13
 3.11437610e-13
 3.11437610e-13
 4.54566791e-13
 4.54566791e-13
 4.54566791e-13
 4.54566791e-13
 4.54566791e-13
 4.54566791e-13
 4.54566791e-13
 4.54566791e-13
 4.54566791e-13
 4.54566791e-13
 4.54566791e-13
 4.54566791e-13
 9.89038182e-14
 9.89038182e-14
 9.89038182e-14
 9.89038182e-14
 7.88835485e-14
 7.88835485e-14
 7.88835485e-14
 5.79376385e-14
 5.79376385e-14
 5.79376385e-14
 4.67953356e-14
 4.67953356e-14
 2.22323804e-13
 2.22323804e-13