/*--------------------------------*- C++ -*----------------------------------*\
| =========                 |                                                 |
| \\      /  F ield        | OpenFOAM: The Open Source CFD Toolbox           |
|  \\    /   O peration    | Version:  7                                     |
|   \\  /    A nd          | Web:      http://www.OpenFOAM.com               |
|    \\/     M anipulation |                                                 |
\*---------------------------------------------------------------------------*/

FoamFile
{
    version     2.0;
    format      ascii;
    class       dictionary;
    object      Y_CN_table;
}

Y_CN_table
2
(
101
(
1
(
101
(
 1.24596354e-27
 1.24596354e-27
 1.24596354e-27
 1.24596354e-27
 1.24596354e-27
 1.24596354e-27
 1.24596354e-27
 1.24596354e-27
 1.24596354e-27
 1.24596354e-27
 1.24596354e-27
 1.24596354e-27
 1.24596354e-27
 1.24596354e-27
 1.24596354e-27
 1.24596354e-27
 1.24596354e-27
 1.24596354e-27
 1.24596354e-27
 1.24596354e-27
 1.24596354e-27
 1.24596354e-27
 1.24596354e-27
 1.24596354e-27
 1.24596354e-27
 1.24596354e-27
 1.24596354e-27
 1.24596354e-27
 1.24596354e-27
 1.24596354e-27
 1.24596354e-27
 1.24596354e-27
 1.24596354e-27
 1.24596354e-27
 1.24596354e-27
 1.24596354e-27
 1.24596354e-27
 1.24596354e-27
 1.24596354e-27
 1.24596354e-27
 1.24596354e-27
 1.24596354e-27
 1.24596354e-27
 1.24596354e-27
 1.24596354e-27
 6.51140483e-19
 6.51140483e-19
 1.67933643e-19
 1.67933643e-19
 1.67933643e-19
 1.67933643e-19
 1.67933643e-19
 1.67933643e-19
 1.67933643e-19
 1.67933643e-19
 1.67933643e-19
 1.67933643e-19
 1.67933643e-19
 1.67933643e-19
 1.67933643e-19
 1.67933643e-19
 1.67933643e-19
 1.67933643e-19
 3.11364438e-20
 3.11364438e-20
 3.11364438e-20
 3.11364438e-20
 3.11364438e-20
 3.11364438e-20
 3.11364438e-20
 3.11364438e-20
 3.11364438e-20
 3.11364438e-20
 3.11364438e-20
 3.11364438e-20
 2.83746585e-20
 2.83746585e-20
 2.83746585e-20
 2.83746585e-20
 2.83746585e-20
 2.83746585e-20
 2.83746585e-20
 3.39521175e-20
 3.39521175e-20
 3.39521175e-20
 3.39521175e-20
 3.39521175e-20
 3.39521175e-20
 2.26545441e-18
 2.26545441e-18
 2.26545441e-18
 2.26545441e-18
 2.26545441e-18
 2.26545441e-18
 2.26545441e-18
 9.06203471e-17
 9.06203471e-17
 9.06203471e-17
 9.06203471e-17
 9.06203471e-17
 2.27082691e-15
)
)
1
(
101
(
 6.52909976e-25
 6.52909976e-25
 6.52909976e-25
 6.52909976e-25
 6.52909976e-25
 6.52909976e-25
 6.52909976e-25
 6.52909976e-25
 6.52909976e-25
 6.52909976e-25
 6.52909976e-25
 6.52909976e-25
 6.52909976e-25
 6.52909976e-25
 6.52909976e-25
 6.52909976e-25
 6.52909976e-25
 6.52909976e-25
 6.52909976e-25
 6.52909976e-25
 6.52909976e-25
 6.52909976e-25
 6.52909976e-25
 6.52909976e-25
 6.52909976e-25
 6.52909976e-25
 6.52909976e-25
 6.52909976e-25
 6.52909976e-25
 6.52909976e-25
 6.52909976e-25
 6.52909976e-25
 6.52909976e-25
 6.52909976e-25
 6.52909976e-25
 6.52909976e-25
 6.52909976e-25
 6.52909976e-25
 6.52909976e-25
 6.52909976e-25
 6.52909976e-25
 6.52909976e-25
 6.52909976e-25
 6.52909976e-25
 6.52909976e-25
 6.51140483e-19
 6.51140483e-19
 6.51140483e-19
 1.67933643e-19
 1.67933643e-19
 1.67933643e-19
 1.67933643e-19
 1.67933643e-19
 1.67933643e-19
 1.67933643e-19
 1.67933643e-19
 1.67933643e-19
 1.67933643e-19
 1.67933643e-19
 1.67933643e-19
 1.67933643e-19
 1.67933643e-19
 1.67933643e-19
 1.67933643e-19
 1.67933643e-19
 3.11364438e-20
 3.11364438e-20
 3.11364438e-20
 3.11364438e-20
 3.11364438e-20
 3.11364438e-20
 3.11364438e-20
 3.11364438e-20
 3.11364438e-20
 3.11364438e-20
 3.11364438e-20
 3.11364438e-20
 2.83746585e-20
 2.83746585e-20
 2.83746585e-20
 2.83746585e-20
 2.83746585e-20
 2.83746585e-20
 3.39521175e-20
 3.39521175e-20
 3.39521175e-20
 3.39521175e-20
 3.39521175e-20
 3.39521175e-20
 3.39521175e-20
 2.26545441e-18
 2.26545441e-18
 2.26545441e-18
 2.26545441e-18
 2.26545441e-18
 2.26545441e-18
 1.97190967e-17
 9.06203471e-17
 9.06203471e-17
 9.06203471e-17
 1.29565286e-15
)
)
1
(
101
(
 1.51350715e-23
 1.51350715e-23
 1.51350715e-23
 1.51350715e-23
 1.51350715e-23
 1.51350715e-23
 1.51350715e-23
 1.51350715e-23
 1.51350715e-23
 1.51350715e-23
 1.51350715e-23
 1.51350715e-23
 1.51350715e-23
 1.51350715e-23
 1.51350715e-23
 1.51350715e-23
 1.51350715e-23
 1.51350715e-23
 1.51350715e-23
 1.51350715e-23
 1.51350715e-23
 1.51350715e-23
 1.51350715e-23
 1.51350715e-23
 1.51350715e-23
 1.51350715e-23
 1.51350715e-23
 1.51350715e-23
 1.51350715e-23
 1.51350715e-23
 1.51350715e-23
 1.51350715e-23
 1.51350715e-23
 1.51350715e-23
 1.51350715e-23
 1.51350715e-23
 1.51350715e-23
 1.51350715e-23
 1.51350715e-23
 1.51350715e-23
 1.51350715e-23
 1.51350715e-23
 1.51350715e-23
 1.51350715e-23
 6.51140483e-19
 6.51140483e-19
 6.51140483e-19
 6.51140483e-19
 6.51140483e-19
 6.51140483e-19
 1.67933643e-19
 1.67933643e-19
 1.67933643e-19
 1.67933643e-19
 1.67933643e-19
 1.67933643e-19
 1.67933643e-19
 1.67933643e-19
 1.67933643e-19
 1.67933643e-19
 1.67933643e-19
 1.67933643e-19
 1.67933643e-19
 1.67933643e-19
 1.67933643e-19
 1.67933643e-19
 3.11364438e-20
 3.11364438e-20
 3.11364438e-20
 3.11364438e-20
 3.11364438e-20
 3.11364438e-20
 3.11364438e-20
 3.11364438e-20
 3.11364438e-20
 3.11364438e-20
 3.11364438e-20
 3.11364438e-20
 2.83746585e-20
 2.83746585e-20
 2.83746585e-20
 2.83746585e-20
 2.83746585e-20
 2.83746585e-20
 2.83746585e-20
 3.39521175e-20
 3.39521175e-20
 3.39521175e-20
 3.39521175e-20
 3.39521175e-20
 3.39521175e-20
 2.26545441e-18
 2.26545441e-18
 2.26545441e-18
 2.26545441e-18
 2.26545441e-18
 2.26545441e-18
 1.97190967e-17
 1.97190967e-17
 2.33368486e-16
 2.33368486e-16
)
)
1
(
101
(
 9.87005819e-23
 9.87005819e-23
 9.87005819e-23
 9.87005819e-23
 9.87005819e-23
 9.87005819e-23
 9.87005819e-23
 9.87005819e-23
 9.87005819e-23
 9.87005819e-23
 9.87005819e-23
 9.87005819e-23
 9.87005819e-23
 9.87005819e-23
 9.87005819e-23
 9.87005819e-23
 9.87005819e-23
 9.87005819e-23
 9.87005819e-23
 9.87005819e-23
 9.87005819e-23
 9.87005819e-23
 9.87005819e-23
 9.87005819e-23
 9.87005819e-23
 9.87005819e-23
 9.87005819e-23
 9.87005819e-23
 9.87005819e-23
 9.87005819e-23
 9.87005819e-23
 9.87005819e-23
 9.87005819e-23
 9.87005819e-23
 9.87005819e-23
 9.87005819e-23
 9.87005819e-23
 9.87005819e-23
 9.87005819e-23
 9.87005819e-23
 9.87005819e-23
 9.87005819e-23
 9.87005819e-23
 9.87005819e-23
 1.95852137e-18
 6.51140483e-19
 6.51140483e-19
 6.51140483e-19
 6.51140483e-19
 6.51140483e-19
 6.51140483e-19
 1.67933643e-19
 1.67933643e-19
 1.67933643e-19
 1.67933643e-19
 1.67933643e-19
 1.67933643e-19
 1.67933643e-19
 1.67933643e-19
 1.67933643e-19
 1.67933643e-19
 1.67933643e-19
 1.67933643e-19
 1.67933643e-19
 1.67933643e-19
 1.67933643e-19
 1.67933643e-19
 3.11364438e-20
 3.11364438e-20
 3.11364438e-20
 3.11364438e-20
 3.11364438e-20
 3.11364438e-20
 3.11364438e-20
 3.11364438e-20
 3.11364438e-20
 3.11364438e-20
 3.11364438e-20
 3.11364438e-20
 7.39524093e-21
 2.83746585e-20
 2.83746585e-20
 2.83746585e-20
 2.83746585e-20
 2.83746585e-20
 2.83746585e-20
 3.39521175e-20
 3.39521175e-20
 3.39521175e-20
 3.39521175e-20
 3.39521175e-20
 3.39521175e-20
 3.39521175e-20
 2.26545441e-18
 2.26545441e-18
 2.26545441e-18
 2.26545441e-18
 2.26545441e-18
 1.97190967e-17
 8.61233988e-16
 8.61233988e-16
)
)
1
(
101
(
 7.32557543e-22
 7.32557543e-22
 7.32557543e-22
 7.32557543e-22
 7.32557543e-22
 7.32557543e-22
 7.32557543e-22
 7.32557543e-22
 7.32557543e-22
 7.32557543e-22
 7.32557543e-22
 7.32557543e-22
 7.32557543e-22
 7.32557543e-22
 7.32557543e-22
 7.32557543e-22
 7.32557543e-22
 7.32557543e-22
 7.32557543e-22
 7.32557543e-22
 7.32557543e-22
 7.32557543e-22
 7.32557543e-22
 7.32557543e-22
 7.32557543e-22
 7.32557543e-22
 7.32557543e-22
 7.32557543e-22
 7.32557543e-22
 7.32557543e-22
 7.32557543e-22
 7.32557543e-22
 7.32557543e-22
 7.32557543e-22
 7.32557543e-22
 7.32557543e-22
 7.32557543e-22
 7.32557543e-22
 7.32557543e-22
 7.32557543e-22
 7.32557543e-22
 7.32557543e-22
 7.32557543e-22
 7.32557543e-22
 1.95852137e-18
 1.95852137e-18
 1.95852137e-18
 6.51140483e-19
 6.51140483e-19
 6.51140483e-19
 6.51140483e-19
 6.51140483e-19
 6.51140483e-19
 1.67933643e-19
 1.67933643e-19
 1.67933643e-19
 1.67933643e-19
 1.67933643e-19
 1.67933643e-19
 1.67933643e-19
 1.67933643e-19
 1.67933643e-19
 1.67933643e-19
 1.67933643e-19
 1.67933643e-19
 1.67933643e-19
 1.67933643e-19
 1.67933643e-19
 3.11364438e-20
 3.11364438e-20
 3.11364438e-20
 3.11364438e-20
 3.11364438e-20
 3.11364438e-20
 3.11364438e-20
 3.11364438e-20
 3.11364438e-20
 3.11364438e-20
 3.11364438e-20
 3.11364438e-20
 7.39524093e-21
 2.83746585e-20
 2.83746585e-20
 2.83746585e-20
 2.83746585e-20
 2.83746585e-20
 2.83746585e-20
 2.83746585e-20
 3.39521175e-20
 3.39521175e-20
 3.39521175e-20
 3.39521175e-20
 3.39521175e-20
 3.39521175e-20
 6.13524589e-19
 2.26545441e-18
 2.26545441e-18
 2.26545441e-18
 8.74575802e-17
 8.74575802e-17
 8.61233988e-16
)
)
1
(
101
(
 3.07517726e-21
 3.07517726e-21
 3.07517726e-21
 3.07517726e-21
 3.07517726e-21
 3.07517726e-21
 3.07517726e-21
 3.07517726e-21
 3.07517726e-21
 3.07517726e-21
 3.07517726e-21
 3.07517726e-21
 3.07517726e-21
 3.07517726e-21
 3.07517726e-21
 3.07517726e-21
 3.07517726e-21
 3.07517726e-21
 3.07517726e-21
 3.07517726e-21
 3.07517726e-21
 3.07517726e-21
 3.07517726e-21
 3.07517726e-21
 3.07517726e-21
 3.07517726e-21
 3.07517726e-21
 3.07517726e-21
 3.07517726e-21
 3.07517726e-21
 3.07517726e-21
 3.07517726e-21
 3.07517726e-21
 3.07517726e-21
 3.07517726e-21
 3.07517726e-21
 3.07517726e-21
 3.07517726e-21
 3.07517726e-21
 3.07517726e-21
 3.07517726e-21
 3.07517726e-21
 6.89403316e-17
 1.95852137e-18
 1.95852137e-18
 1.95852137e-18
 1.95852137e-18
 1.95852137e-18
 6.51140483e-19
 6.51140483e-19
 6.51140483e-19
 6.51140483e-19
 6.51140483e-19
 6.51140483e-19
 1.67933643e-19
 1.67933643e-19
 1.67933643e-19
 1.67933643e-19
 1.67933643e-19
 1.67933643e-19
 1.67933643e-19
 1.67933643e-19
 1.67933643e-19
 1.67933643e-19
 1.67933643e-19
 1.67933643e-19
 1.67933643e-19
 1.67933643e-19
 1.67933643e-19
 1.67933643e-19
 3.11364438e-20
 3.11364438e-20
 3.11364438e-20
 3.11364438e-20
 3.11364438e-20
 3.11364438e-20
 3.11364438e-20
 3.11364438e-20
 3.11364438e-20
 3.11364438e-20
 3.11364438e-20
 7.39524093e-21
 7.39524093e-21
 2.83746585e-20
 2.83746585e-20
 2.83746585e-20
 2.83746585e-20
 2.83746585e-20
 2.83746585e-20
 3.39521175e-20
 3.39521175e-20
 3.39521175e-20
 3.39521175e-20
 3.39521175e-20
 3.39521175e-20
 6.13524589e-19
 6.13524589e-19
 7.99703643e-17
 7.99703643e-17
 8.74575802e-17
 8.74575802e-17
)
)
1
(
101
(
 1.36859139e-20
 1.36859139e-20
 1.36859139e-20
 1.36859139e-20
 1.36859139e-20
 1.36859139e-20
 1.36859139e-20
 1.36859139e-20
 1.36859139e-20
 1.36859139e-20
 1.36859139e-20
 1.36859139e-20
 1.36859139e-20
 1.36859139e-20
 1.36859139e-20
 1.36859139e-20
 1.36859139e-20
 1.36859139e-20
 1.36859139e-20
 1.36859139e-20
 1.36859139e-20
 1.36859139e-20
 1.36859139e-20
 1.36859139e-20
 1.36859139e-20
 1.36859139e-20
 1.36859139e-20
 1.36859139e-20
 1.36859139e-20
 1.36859139e-20
 1.36859139e-20
 1.36859139e-20
 1.36859139e-20
 6.89403316e-17
 6.89403316e-17
 6.89403316e-17
 6.89403316e-17
 6.89403316e-17
 6.89403316e-17
 6.89403316e-17
 6.89403316e-17
 6.89403316e-17
 6.89403316e-17
 1.95852137e-18
 1.95852137e-18
 1.95852137e-18
 1.95852137e-18
 1.95852137e-18
 1.95852137e-18
 6.51140483e-19
 6.51140483e-19
 6.51140483e-19
 6.51140483e-19
 6.51140483e-19
 6.51140483e-19
 6.51140483e-19
 1.67933643e-19
 1.67933643e-19
 1.67933643e-19
 1.67933643e-19
 1.67933643e-19
 1.67933643e-19
 1.67933643e-19
 1.67933643e-19
 1.67933643e-19
 1.67933643e-19
 1.67933643e-19
 1.67933643e-19
 1.67933643e-19
 1.67933643e-19
 1.67933643e-19
 3.11364438e-20
 3.11364438e-20
 3.11364438e-20
 3.11364438e-20
 3.11364438e-20
 3.11364438e-20
 3.11364438e-20
 3.11364438e-20
 3.11364438e-20
 3.11364438e-20
 3.11364438e-20
 7.39524093e-21
 7.39524093e-21
 2.83746585e-20
 2.83746585e-20
 2.83746585e-20
 2.83746585e-20
 2.83746585e-20
 2.83746585e-20
 2.83746585e-20
 3.39521175e-20
 3.39521175e-20
 3.39521175e-20
 3.39521175e-20
 3.39521175e-20
 6.13524589e-19
 6.13524589e-19
 7.99703643e-17
 7.99703643e-17
 8.74575802e-17
)
)
1
(
101
(
 6.06560392e-20
 6.06560392e-20
 6.06560392e-20
 6.06560392e-20
 6.06560392e-20
 6.06560392e-20
 6.06560392e-20
 6.06560392e-20
 6.06560392e-20
 6.06560392e-20
 6.06560392e-20
 6.06560392e-20
 6.06560392e-20
 6.06560392e-20
 6.06560392e-20
 6.06560392e-20
 6.06560392e-20
 6.06560392e-20
 6.06560392e-20
 6.06560392e-20
 6.06560392e-20
 6.06560392e-20
 6.06560392e-20
 6.06560392e-20
 6.06560392e-20
 6.06560392e-20
 6.89403316e-17
 6.89403316e-17
 6.89403316e-17
 6.89403316e-17
 6.89403316e-17
 6.89403316e-17
 6.89403316e-17
 6.89403316e-17
 6.89403316e-17
 6.89403316e-17
 6.89403316e-17
 6.89403316e-17
 6.89403316e-17
 6.89403316e-17
 6.89403316e-17
 6.89403316e-17
 6.89403316e-17
 1.95852137e-18
 1.95852137e-18
 1.95852137e-18
 1.95852137e-18
 1.95852137e-18
 1.95852137e-18
 1.95852137e-18
 6.51140483e-19
 6.51140483e-19
 6.51140483e-19
 6.51140483e-19
 6.51140483e-19
 6.51140483e-19
 6.51140483e-19
 1.67933643e-19
 1.67933643e-19
 1.67933643e-19
 1.67933643e-19
 1.67933643e-19
 1.67933643e-19
 1.67933643e-19
 1.67933643e-19
 1.67933643e-19
 1.67933643e-19
 1.67933643e-19
 1.67933643e-19
 1.67933643e-19
 1.67933643e-19
 1.67933643e-19
 3.11364438e-20
 3.11364438e-20
 3.11364438e-20
 3.11364438e-20
 3.11364438e-20
 3.11364438e-20
 3.11364438e-20
 3.11364438e-20
 3.11364438e-20
 3.11364438e-20
 3.11364438e-20
 7.39524093e-21
 7.39524093e-21
 7.39524093e-21
 2.83746585e-20
 2.83746585e-20
 2.83746585e-20
 2.83746585e-20
 2.83746585e-20
 2.83746585e-20
 4.77024809e-20
 3.39521175e-20
 3.39521175e-20
 3.39521175e-20
 5.36441722e-17
 5.36441722e-17
 5.36441722e-17
 7.99703643e-17
 7.99703643e-17
)
)
1
(
101
(
 1.61221650e-19
 1.61221650e-19
 1.61221650e-19
 1.61221650e-19
 1.61221650e-19
 1.61221650e-19
 1.61221650e-19
 1.61221650e-19
 1.61221650e-19
 1.61221650e-19
 1.61221650e-19
 1.61221650e-19
 1.61221650e-19
 1.61221650e-19
 1.61221650e-19
 1.61221650e-19
 1.61221650e-19
 1.61221650e-19
 1.61221650e-19
 6.89403316e-17
 6.89403316e-17
 6.89403316e-17
 6.89403316e-17
 6.89403316e-17
 6.89403316e-17
 6.89403316e-17
 6.89403316e-17
 6.89403316e-17
 6.89403316e-17
 6.89403316e-17
 6.89403316e-17
 6.89403316e-17
 6.89403316e-17
 6.89403316e-17
 6.89403316e-17
 6.89403316e-17
 6.89403316e-17
 6.89403316e-17
 6.89403316e-17
 6.89403316e-17
 6.89403316e-17
 6.89403316e-17
 1.95852137e-18
 1.95852137e-18
 1.95852137e-18
 1.95852137e-18
 1.95852137e-18
 1.95852137e-18
 1.95852137e-18
 1.95852137e-18
 1.95852137e-18
 6.51140483e-19
 6.51140483e-19
 6.51140483e-19
 6.51140483e-19
 6.51140483e-19
 6.51140483e-19
 6.51140483e-19
 6.51140483e-19
 1.67933643e-19
 1.67933643e-19
 1.67933643e-19
 1.67933643e-19
 1.67933643e-19
 1.67933643e-19
 1.67933643e-19
 1.67933643e-19
 1.67933643e-19
 1.67933643e-19
 1.67933643e-19
 1.67933643e-19
 1.67933643e-19
 1.67933643e-19
 3.11364438e-20
 3.11364438e-20
 3.11364438e-20
 3.11364438e-20
 3.11364438e-20
 3.11364438e-20
 3.11364438e-20
 3.11364438e-20
 3.11364438e-20
 3.11364438e-20
 3.11364438e-20
 7.39524093e-21
 7.39524093e-21
 7.39524093e-21
 2.83746585e-20
 2.83746585e-20
 2.83746585e-20
 2.83746585e-20
 2.83746585e-20
 2.83746585e-20
 4.77024809e-20
 4.77024809e-20
 1.09796525e-18
 1.09796525e-18
 5.36441722e-17
 5.36441722e-17
 5.36441722e-17
 5.36441722e-17
)
)
1
(
101
(
 5.76327744e-19
 5.76327744e-19
 5.76327744e-19
 5.76327744e-19
 5.76327744e-19
 5.76327744e-19
 5.76327744e-19
 5.76327744e-19
 5.76327744e-19
 5.76327744e-19
 5.76327744e-19
 5.76327744e-19
 5.76327744e-19
 5.76327744e-19
 6.89403316e-17
 6.89403316e-17
 6.89403316e-17
 6.89403316e-17
 6.89403316e-17
 6.89403316e-17
 6.89403316e-17
 6.89403316e-17
 6.89403316e-17
 6.89403316e-17
 6.89403316e-17
 6.89403316e-17
 6.89403316e-17
 6.89403316e-17
 6.89403316e-17
 6.89403316e-17
 6.89403316e-17
 6.89403316e-17
 6.89403316e-17
 6.89403316e-17
 6.89403316e-17
 6.89403316e-17
 6.89403316e-17
 6.89403316e-17
 6.89403316e-17
 6.89403316e-17
 6.89403316e-17
 6.89403316e-17
 1.95852137e-18
 1.95852137e-18
 1.95852137e-18
 1.95852137e-18
 1.95852137e-18
 1.95852137e-18
 1.95852137e-18
 1.95852137e-18
 1.95852137e-18
 1.95852137e-18
 6.51140483e-19
 6.51140483e-19
 6.51140483e-19
 6.51140483e-19
 6.51140483e-19
 6.51140483e-19
 6.51140483e-19
 6.51140483e-19
 1.67933643e-19
 1.67933643e-19
 1.67933643e-19
 1.67933643e-19
 1.67933643e-19
 1.67933643e-19
 1.67933643e-19
 1.67933643e-19
 1.67933643e-19
 1.67933643e-19
 1.67933643e-19
 1.67933643e-19
 1.67933643e-19
 1.67933643e-19
 1.67933643e-19
 3.11364438e-20
 3.11364438e-20
 3.11364438e-20
 3.11364438e-20
 3.11364438e-20
 3.11364438e-20
 3.11364438e-20
 3.11364438e-20
 3.11364438e-20
 3.11364438e-20
 7.39524093e-21
 7.39524093e-21
 7.39524093e-21
 7.39524093e-21
 2.83746585e-20
 2.83746585e-20
 2.83746585e-20
 2.83746585e-20
 2.83746585e-20
 4.77024809e-20
 4.77024809e-20
 1.09796525e-18
 1.09796525e-18
 5.36441722e-17
 5.36441722e-17
 5.36441722e-17
)
)
1
(
101
(
 1.55614242e-18
 1.55614242e-18
 1.55614242e-18
 1.55614242e-18
 1.55614242e-18
 1.55614242e-18
 1.55614242e-18
 1.55614242e-18
 1.55614242e-18
 6.89403316e-17
 6.89403316e-17
 6.89403316e-17
 6.89403316e-17
 6.89403316e-17
 6.89403316e-17
 6.89403316e-17
 6.89403316e-17
 6.89403316e-17
 6.89403316e-17
 6.89403316e-17
 6.89403316e-17
 6.89403316e-17
 6.89403316e-17
 6.89403316e-17
 6.89403316e-17
 6.89403316e-17
 6.89403316e-17
 6.89403316e-17
 6.89403316e-17
 6.89403316e-17
 6.89403316e-17
 6.89403316e-17
 6.89403316e-17
 6.89403316e-17
 6.89403316e-17
 6.89403316e-17
 6.89403316e-17
 6.89403316e-17
 6.89403316e-17
 6.89403316e-17
 6.89403316e-17
 6.89403316e-17
 1.95852137e-18
 1.95852137e-18
 1.95852137e-18
 1.95852137e-18
 1.95852137e-18
 1.95852137e-18
 1.95852137e-18
 1.95852137e-18
 1.95852137e-18
 1.95852137e-18
 1.95852137e-18
 1.95852137e-18
 6.51140483e-19
 6.51140483e-19
 6.51140483e-19
 6.51140483e-19
 6.51140483e-19
 6.51140483e-19
 6.51140483e-19
 6.51140483e-19
 1.67933643e-19
 1.67933643e-19
 1.67933643e-19
 1.67933643e-19
 1.67933643e-19
 1.67933643e-19
 1.67933643e-19
 1.67933643e-19
 1.67933643e-19
 1.67933643e-19
 1.67933643e-19
 1.67933643e-19
 1.67933643e-19
 1.67933643e-19
 3.11364438e-20
 3.11364438e-20
 3.11364438e-20
 3.11364438e-20
 3.11364438e-20
 3.11364438e-20
 3.11364438e-20
 3.11364438e-20
 3.11364438e-20
 3.11364438e-20
 7.39524093e-21
 7.39524093e-21
 7.39524093e-21
 7.39524093e-21
 2.51378274e-20
 2.83746585e-20
 2.83746585e-20
 2.83746585e-20
 2.83746585e-20
 4.77024809e-20
 4.77024809e-20
 1.09796525e-18
 1.09796525e-18
 5.36441722e-17
 5.36441722e-17
)
)
1
(
101
(
 3.48349492e-18
 3.48349492e-18
 3.48349492e-18
 3.48349492e-18
 3.48349492e-18
 3.48349492e-18
 6.89403316e-17
 6.89403316e-17
 6.89403316e-17
 6.89403316e-17
 6.89403316e-17
 6.89403316e-17
 6.89403316e-17
 6.89403316e-17
 6.89403316e-17
 6.89403316e-17
 6.89403316e-17
 6.89403316e-17
 6.89403316e-17
 6.89403316e-17
 6.89403316e-17
 6.89403316e-17
 6.89403316e-17
 6.89403316e-17
 6.89403316e-17
 6.89403316e-17
 6.89403316e-17
 6.89403316e-17
 6.89403316e-17
 6.89403316e-17
 6.89403316e-17
 6.89403316e-17
 6.89403316e-17
 6.89403316e-17
 6.89403316e-17
 6.89403316e-17
 6.89403316e-17
 6.89403316e-17
 6.89403316e-17
 6.89403316e-17
 6.89403316e-17
 6.89403316e-17
 1.95852137e-18
 1.95852137e-18
 1.95852137e-18
 1.95852137e-18
 1.95852137e-18
 1.95852137e-18
 1.95852137e-18
 1.95852137e-18
 1.95852137e-18
 1.95852137e-18
 1.95852137e-18
 1.95852137e-18
 1.95852137e-18
 6.51140483e-19
 6.51140483e-19
 6.51140483e-19
 6.51140483e-19
 6.51140483e-19
 6.51140483e-19
 6.51140483e-19
 6.51140483e-19
 1.67933643e-19
 1.67933643e-19
 1.67933643e-19
 1.67933643e-19
 1.67933643e-19
 1.67933643e-19
 1.67933643e-19
 1.67933643e-19
 1.67933643e-19
 1.67933643e-19
 1.67933643e-19
 1.67933643e-19
 1.67933643e-19
 1.67933643e-19
 3.11364438e-20
 3.11364438e-20
 3.11364438e-20
 3.11364438e-20
 3.11364438e-20
 3.11364438e-20
 3.11364438e-20
 3.11364438e-20
 3.11364438e-20
 3.11364438e-20
 7.39524093e-21
 7.39524093e-21
 7.39524093e-21
 7.39524093e-21
 2.51378274e-20
 2.51378274e-20
 1.57935170e-18
 1.57935170e-18
 1.57935170e-18
 4.77024809e-20
 4.77024809e-20
 1.09796525e-18
 1.09796525e-18
 5.36441722e-17
)
)
1
(
101
(
 8.60876020e-18
 8.60876020e-18
 8.60876020e-18
 6.89403316e-17
 6.89403316e-17
 6.89403316e-17
 6.89403316e-17
 6.89403316e-17
 6.89403316e-17
 6.89403316e-17
 6.89403316e-17
 6.89403316e-17
 6.89403316e-17
 6.89403316e-17
 6.89403316e-17
 6.89403316e-17
 6.89403316e-17
 6.89403316e-17
 6.89403316e-17
 6.89403316e-17
 6.89403316e-17
 6.89403316e-17
 6.89403316e-17
 6.89403316e-17
 6.89403316e-17
 6.89403316e-17
 6.89403316e-17
 6.89403316e-17
 6.89403316e-17
 6.89403316e-17
 6.89403316e-17
 6.89403316e-17
 6.89403316e-17
 6.89403316e-17
 6.89403316e-17
 6.89403316e-17
 6.89403316e-17
 6.89403316e-17
 6.89403316e-17
 6.89403316e-17
 6.89403316e-17
 2.25663578e-18
 1.95852137e-18
 1.95852137e-18
 1.95852137e-18
 1.95852137e-18
 1.95852137e-18
 1.95852137e-18
 1.95852137e-18
 1.95852137e-18
 1.95852137e-18
 1.95852137e-18
 1.95852137e-18
 1.95852137e-18
 1.95852137e-18
 1.95852137e-18
 6.51140483e-19
 6.51140483e-19
 6.51140483e-19
 6.51140483e-19
 6.51140483e-19
 6.51140483e-19
 6.51140483e-19
 6.51140483e-19
 6.51140483e-19
 1.67933643e-19
 1.67933643e-19
 1.67933643e-19
 1.67933643e-19
 1.67933643e-19
 1.67933643e-19
 1.67933643e-19
 1.67933643e-19
 1.67933643e-19
 1.67933643e-19
 1.67933643e-19
 1.67933643e-19
 1.67933643e-19
 3.11364438e-20
 3.11364438e-20
 3.11364438e-20
 3.11364438e-20
 3.11364438e-20
 3.11364438e-20
 3.11364438e-20
 3.11364438e-20
 3.11364438e-20
 3.11364438e-20
 7.39524093e-21
 7.39524093e-21
 7.39524093e-21
 7.39524093e-21
 2.51378274e-20
 2.51378274e-20
 1.57935170e-18
 1.57935170e-18
 1.57935170e-18
 1.57935170e-18
 4.77024809e-20
 1.09796525e-18
 1.09796525e-18
)
)
1
(
101
(
 9.76295176e-18
 9.76295176e-18
 6.89403316e-17
 6.89403316e-17
 6.89403316e-17
 6.89403316e-17
 6.89403316e-17
 6.89403316e-17
 6.89403316e-17
 6.89403316e-17
 6.89403316e-17
 6.89403316e-17
 6.89403316e-17
 6.89403316e-17
 6.89403316e-17
 6.89403316e-17
 6.89403316e-17
 6.89403316e-17
 6.89403316e-17
 6.89403316e-17
 6.89403316e-17
 6.89403316e-17
 6.89403316e-17
 6.89403316e-17
 6.89403316e-17
 6.89403316e-17
 6.89403316e-17
 6.89403316e-17
 6.89403316e-17
 6.89403316e-17
 6.89403316e-17
 6.89403316e-17
 6.89403316e-17
 6.89403316e-17
 6.89403316e-17
 6.89403316e-17
 6.89403316e-17
 6.89403316e-17
 6.89403316e-17
 6.89403316e-17
 6.89403316e-17
 2.25663578e-18
 2.25663578e-18
 1.95852137e-18
 1.95852137e-18
 1.95852137e-18
 1.95852137e-18
 1.95852137e-18
 1.95852137e-18
 1.95852137e-18
 1.95852137e-18
 1.95852137e-18
 1.95852137e-18
 1.95852137e-18
 1.95852137e-18
 1.95852137e-18
 1.95852137e-18
 6.51140483e-19
 6.51140483e-19
 6.51140483e-19
 6.51140483e-19
 6.51140483e-19
 6.51140483e-19
 6.51140483e-19
 6.51140483e-19
 6.51140483e-19
 1.67933643e-19
 1.67933643e-19
 1.67933643e-19
 1.67933643e-19
 1.67933643e-19
 1.67933643e-19
 1.67933643e-19
 1.67933643e-19
 1.67933643e-19
 1.67933643e-19
 1.67933643e-19
 1.67933643e-19
 1.67933643e-19
 1.67933643e-19
 3.11364438e-20
 3.11364438e-20
 3.11364438e-20
 3.11364438e-20
 3.11364438e-20
 3.11364438e-20
 3.11364438e-20
 3.11364438e-20
 7.36440373e-21
 7.39524093e-21
 7.39524093e-21
 7.39524093e-21
 1.75228061e-19
 1.75228061e-19
 1.75228061e-19
 1.57935170e-18
 1.57935170e-18
 1.57935170e-18
 1.57935170e-18
 1.57935170e-18
 1.09796525e-18
)
)
1
(
101
(
 2.50780358e-20
 6.89403316e-17
 6.89403316e-17
 6.89403316e-17
 6.89403316e-17
 6.89403316e-17
 6.89403316e-17
 6.89403316e-17
 6.89403316e-17
 6.89403316e-17
 6.89403316e-17
 6.89403316e-17
 6.89403316e-17
 6.89403316e-17
 6.89403316e-17
 6.89403316e-17
 6.89403316e-17
 6.89403316e-17
 6.89403316e-17
 6.89403316e-17
 6.89403316e-17
 6.89403316e-17
 6.89403316e-17
 6.89403316e-17
 6.89403316e-17
 6.89403316e-17
 6.89403316e-17
 6.89403316e-17
 6.89403316e-17
 6.89403316e-17
 6.89403316e-17
 6.89403316e-17
 6.89403316e-17
 6.89403316e-17
 6.89403316e-17
 6.89403316e-17
 6.89403316e-17
 6.89403316e-17
 6.89403316e-17
 6.89403316e-17
 2.25663578e-18
 2.25663578e-18
 2.25663578e-18
 2.25663578e-18
 1.95852137e-18
 1.95852137e-18
 1.95852137e-18
 1.95852137e-18
 1.95852137e-18
 1.95852137e-18
 1.95852137e-18
 1.95852137e-18
 1.95852137e-18
 1.95852137e-18
 1.95852137e-18
 1.95852137e-18
 1.95852137e-18
 1.95852137e-18
 6.51140483e-19
 6.51140483e-19
 6.51140483e-19
 6.51140483e-19
 6.51140483e-19
 6.51140483e-19
 6.51140483e-19
 6.51140483e-19
 6.51140483e-19
 6.51140483e-19
 1.67933643e-19
 1.67933643e-19
 1.67933643e-19
 1.67933643e-19
 1.67933643e-19
 1.67933643e-19
 1.67933643e-19
 1.67933643e-19
 1.67933643e-19
 1.67933643e-19
 1.67933643e-19
 1.67933643e-19
 1.67933643e-19
 6.96443875e-20
 3.11364438e-20
 3.11364438e-20
 3.11364438e-20
 3.11364438e-20
 3.11364438e-20
 3.11364438e-20
 3.11364438e-20
 7.36440373e-21
 7.36440373e-21
 6.11085900e-21
 6.11085900e-21
 1.75228061e-19
 1.75228061e-19
 1.75228061e-19
 1.75228061e-19
 1.57935170e-18
 1.57935170e-18
 1.57935170e-18
 1.57935170e-18
)
)
1
(
101
(
 2.50780358e-20
 6.90859493e-17
 6.90859493e-17
 6.90859493e-17
 6.90859493e-17
 6.90859493e-17
 6.90859493e-17
 6.90859493e-17
 6.90859493e-17
 6.90859493e-17
 6.90859493e-17
 6.90859493e-17
 6.90859493e-17
 6.90859493e-17
 6.90859493e-17
 6.90859493e-17
 6.90859493e-17
 6.90859493e-17
 6.90859493e-17
 6.90859493e-17
 6.90859493e-17
 6.90859493e-17
 6.90859493e-17
 6.90859493e-17
 6.90859493e-17
 6.90859493e-17
 6.90859493e-17
 6.90859493e-17
 6.90859493e-17
 6.90859493e-17
 6.90859493e-17
 6.90859493e-17
 6.90859493e-17
 6.90859493e-17
 6.90859493e-17
 6.90859493e-17
 6.90859493e-17
 6.90859493e-17
 6.90859493e-17
 6.90859493e-17
 2.25663578e-18
 2.25663578e-18
 2.25663578e-18
 2.25663578e-18
 2.25663578e-18
 1.95852137e-18
 1.95852137e-18
 1.95852137e-18
 1.95852137e-18
 1.95852137e-18
 1.95852137e-18
 1.95852137e-18
 1.95852137e-18
 1.95852137e-18
 1.95852137e-18
 1.95852137e-18
 1.95852137e-18
 1.95852137e-18
 1.95852137e-18
 6.51140483e-19
 6.51140483e-19
 6.51140483e-19
 6.51140483e-19
 6.51140483e-19
 6.51140483e-19
 6.51140483e-19
 6.51140483e-19
 6.51140483e-19
 6.51140483e-19
 1.67933643e-19
 1.67933643e-19
 1.67933643e-19
 1.67933643e-19
 1.67933643e-19
 1.67933643e-19
 1.67933643e-19
 1.67933643e-19
 1.67933643e-19
 1.67933643e-19
 1.67933643e-19
 1.67933643e-19
 1.67933643e-19
 6.96443875e-20
 6.96443875e-20
 3.11364438e-20
 3.11364438e-20
 3.11364438e-20
 3.11364438e-20
 3.11364438e-20
 7.36440373e-21
 7.36440373e-21
 7.36440373e-21
 6.11085900e-21
 6.11085900e-21
 1.75228061e-19
 1.75228061e-19
 1.75228061e-19
 1.75228061e-19
 1.75228061e-19
 1.57935170e-18
 1.57935170e-18
)
)
1
(
101
(
 1.62955324e-16
 1.62955324e-16
 1.62955324e-16
 1.62955324e-16
 1.62955324e-16
 1.62955324e-16
 1.62955324e-16
 1.62955324e-16
 1.62955324e-16
 1.62955324e-16
 1.62955324e-16
 1.62955324e-16
 1.62955324e-16
 1.62955324e-16
 1.62955324e-16
 1.62955324e-16
 1.62955324e-16
 1.62955324e-16
 1.62955324e-16
 1.62955324e-16
 1.62955324e-16
 1.62955324e-16
 1.62955324e-16
 1.62955324e-16
 1.62955324e-16
 1.62955324e-16
 1.62955324e-16
 1.62955324e-16
 1.62955324e-16
 1.62955324e-16
 1.62955324e-16
 1.62955324e-16
 1.62955324e-16
 1.62955324e-16
 1.62955324e-16
 1.62955324e-16
 1.62955324e-16
 1.62955324e-16
 1.62955324e-16
 1.62955324e-16
 2.25663578e-18
 2.25663578e-18
 2.25663578e-18
 2.25663578e-18
 2.25663578e-18
 2.25663578e-18
 1.95852137e-18
 1.95852137e-18
 1.95852137e-18
 1.95852137e-18
 1.95852137e-18
 1.95852137e-18
 1.95852137e-18
 1.95852137e-18
 1.95852137e-18
 1.95852137e-18
 1.95852137e-18
 1.95852137e-18
 1.95852137e-18
 1.95852137e-18
 1.95852137e-18
 6.51140483e-19
 6.51140483e-19
 6.51140483e-19
 6.51140483e-19
 6.51140483e-19
 6.51140483e-19
 6.51140483e-19
 6.51140483e-19
 6.51140483e-19
 6.51140483e-19
 1.67933643e-19
 1.67933643e-19
 1.67933643e-19
 1.67933643e-19
 1.67933643e-19
 1.67933643e-19
 1.67933643e-19
 1.67933643e-19
 1.67933643e-19
 1.67933643e-19
 1.67933643e-19
 1.67933643e-19
 6.96443875e-20
 6.96443875e-20
 6.96443875e-20
 3.11364438e-20
 3.11364438e-20
 3.11364438e-20
 3.11364438e-20
 7.36440373e-21
 7.36440373e-21
 7.36440373e-21
 6.11085900e-21
 6.11085900e-21
 1.75228061e-19
 1.75228061e-19
 1.75228061e-19
 1.75228061e-19
 1.75228061e-19
 1.75228061e-19
)
)
1
(
101
(
 3.43692178e-16
 3.43692178e-16
 3.43692178e-16
 3.43692178e-16
 3.43692178e-16
 3.43692178e-16
 3.43692178e-16
 3.43692178e-16
 3.43692178e-16
 3.43692178e-16
 3.43692178e-16
 3.43692178e-16
 3.43692178e-16
 3.43692178e-16
 3.43692178e-16
 3.43692178e-16
 3.43692178e-16
 3.43692178e-16
 3.43692178e-16
 3.43692178e-16
 3.43692178e-16
 3.43692178e-16
 3.43692178e-16
 3.43692178e-16
 3.43692178e-16
 3.43692178e-16
 3.43692178e-16
 3.43692178e-16
 3.43692178e-16
 3.43692178e-16
 3.43692178e-16
 3.43692178e-16
 3.43692178e-16
 3.43692178e-16
 3.43692178e-16
 3.43692178e-16
 3.43692178e-16
 3.43692178e-16
 3.43692178e-16
 2.25663578e-18
 2.25663578e-18
 2.25663578e-18
 2.25663578e-18
 2.25663578e-18
 2.25663578e-18
 2.25663578e-18
 2.25663578e-18
 2.25663578e-18
 1.95852137e-18
 1.95852137e-18
 1.95852137e-18
 1.95852137e-18
 1.95852137e-18
 1.95852137e-18
 1.95852137e-18
 1.95852137e-18
 1.95852137e-18
 1.95852137e-18
 1.95852137e-18
 1.95852137e-18
 1.95852137e-18
 1.95852137e-18
 6.51140483e-19
 6.51140483e-19
 6.51140483e-19
 6.51140483e-19
 6.51140483e-19
 6.51140483e-19
 6.51140483e-19
 6.51140483e-19
 6.51140483e-19
 6.51140483e-19
 1.67933643e-19
 1.67933643e-19
 1.67933643e-19
 1.67933643e-19
 1.67933643e-19
 1.67933643e-19
 1.67933643e-19
 1.67933643e-19
 1.67933643e-19
 1.67933643e-19
 1.67933643e-19
 1.67933643e-19
 6.96443875e-20
 6.96443875e-20
 6.96443875e-20
 6.96443875e-20
 2.66710636e-20
 2.66710636e-20
 2.66710636e-20
 7.36440373e-21
 7.36440373e-21
 7.36440373e-21
 6.11085900e-21
 6.11085900e-21
 1.75228061e-19
 1.75228061e-19
 1.75228061e-19