/*--------------------------------*- C++ -*----------------------------------*\
| =========                 |                                                 |
| \\      /  F ield        | OpenFOAM: The Open Source CFD Toolbox           |
|  \\    /   O peration    | Version:  7                                     |
|   \\  /    A nd          | Web:      http://www.OpenFOAM.com               |
|    \\/     M anipulation |                                                 |
\*---------------------------------------------------------------------------*/

FoamFile
{
    version     2.0;
    format      ascii;
    class       dictionary;
    object      Y_CO2_table;
}

Y_CO2_table
2
(
101
(
1
(
101
(
 2.49777998e-06
 2.49777998e-06
 2.49777998e-06
 2.49777998e-06
 2.49777998e-06
 2.49777998e-06
 2.49777998e-06
 2.49777998e-06
 2.49777998e-06
 2.49777998e-06
 2.49777998e-06
 2.49777998e-06
 2.49777998e-06
 2.49777998e-06
 2.49777998e-06
 2.49777998e-06
 2.49777998e-06
 2.49777998e-06
 2.49777998e-06
 2.49777998e-06
 2.49777998e-06
 2.49777998e-06
 2.49777998e-06
 2.49777998e-06
 2.49777998e-06
 2.49777998e-06
 2.49777998e-06
 2.49777998e-06
 2.49777998e-06
 2.49777998e-06
 2.49777998e-06
 2.49777998e-06
 2.49777998e-06
 2.49777998e-06
 2.49777998e-06
 2.49777998e-06
 2.49777998e-06
 2.49777998e-06
 2.49777998e-06
 2.49777998e-06
 2.49777998e-06
 2.49777998e-06
 2.49777998e-06
 2.49777998e-06
 2.49777998e-06
 1.91155643e-02
 1.91155643e-02
 1.33793417e-02
 1.33793417e-02
 1.33793417e-02
 1.33793417e-02
 1.33793417e-02
 1.33793417e-02
 1.33793417e-02
 1.33793417e-02
 1.33793417e-02
 1.33793417e-02
 1.33793417e-02
 1.33793417e-02
 1.33793417e-02
 1.33793417e-02
 1.33793417e-02
 1.33793417e-02
 9.62072474e-03
 9.62072474e-03
 9.62072474e-03
 9.62072474e-03
 9.62072474e-03
 9.62072474e-03
 9.62072474e-03
 9.62072474e-03
 9.62072474e-03
 9.62072474e-03
 9.62072474e-03
 9.62072474e-03
 5.43525579e-03
 5.43525579e-03
 5.43525579e-03
 5.43525579e-03
 5.43525579e-03
 5.43525579e-03
 5.43525579e-03
 3.51353945e-03
 3.51353945e-03
 3.51353945e-03
 3.51353945e-03
 3.51353945e-03
 3.51353945e-03
 1.84381655e-03
 1.84381655e-03
 1.84381655e-03
 1.84381655e-03
 1.84381655e-03
 1.84381655e-03
 1.84381655e-03
 3.20149964e-04
 3.20149964e-04
 3.20149964e-04
 3.20149964e-04
 3.20149964e-04
 2.94054439e-06
)
)
1
(
101
(
 1.67778042e-04
 1.67778042e-04
 1.67778042e-04
 1.67778042e-04
 1.67778042e-04
 1.67778042e-04
 1.67778042e-04
 1.67778042e-04
 1.67778042e-04
 1.67778042e-04
 1.67778042e-04
 1.67778042e-04
 1.67778042e-04
 1.67778042e-04
 1.67778042e-04
 1.67778042e-04
 1.67778042e-04
 1.67778042e-04
 1.67778042e-04
 1.67778042e-04
 1.67778042e-04
 1.67778042e-04
 1.67778042e-04
 1.67778042e-04
 1.67778042e-04
 1.67778042e-04
 1.67778042e-04
 1.67778042e-04
 1.67778042e-04
 1.67778042e-04
 1.67778042e-04
 1.67778042e-04
 1.67778042e-04
 1.67778042e-04
 1.67778042e-04
 1.67778042e-04
 1.67778042e-04
 1.67778042e-04
 1.67778042e-04
 1.67778042e-04
 1.67778042e-04
 1.67778042e-04
 1.67778042e-04
 1.67778042e-04
 1.67778042e-04
 1.91155643e-02
 1.91155643e-02
 1.91155643e-02
 1.33793417e-02
 1.33793417e-02
 1.33793417e-02
 1.33793417e-02
 1.33793417e-02
 1.33793417e-02
 1.33793417e-02
 1.33793417e-02
 1.33793417e-02
 1.33793417e-02
 1.33793417e-02
 1.33793417e-02
 1.33793417e-02
 1.33793417e-02
 1.33793417e-02
 1.33793417e-02
 1.33793417e-02
 9.62072474e-03
 9.62072474e-03
 9.62072474e-03
 9.62072474e-03
 9.62072474e-03
 9.62072474e-03
 9.62072474e-03
 9.62072474e-03
 9.62072474e-03
 9.62072474e-03
 9.62072474e-03
 9.62072474e-03
 5.43525579e-03
 5.43525579e-03
 5.43525579e-03
 5.43525579e-03
 5.43525579e-03
 5.43525579e-03
 3.51353945e-03
 3.51353945e-03
 3.51353945e-03
 3.51353945e-03
 3.51353945e-03
 3.51353945e-03
 3.51353945e-03
 1.84381655e-03
 1.84381655e-03
 1.84381655e-03
 1.84381655e-03
 1.84381655e-03
 1.84381655e-03
 1.09766671e-03
 3.20149964e-04
 3.20149964e-04
 3.20149964e-04
 1.54209159e-04
)
)
1
(
101
(
 4.67897787e-04
 4.67897787e-04
 4.67897787e-04
 4.67897787e-04
 4.67897787e-04
 4.67897787e-04
 4.67897787e-04
 4.67897787e-04
 4.67897787e-04
 4.67897787e-04
 4.67897787e-04
 4.67897787e-04
 4.67897787e-04
 4.67897787e-04
 4.67897787e-04
 4.67897787e-04
 4.67897787e-04
 4.67897787e-04
 4.67897787e-04
 4.67897787e-04
 4.67897787e-04
 4.67897787e-04
 4.67897787e-04
 4.67897787e-04
 4.67897787e-04
 4.67897787e-04
 4.67897787e-04
 4.67897787e-04
 4.67897787e-04
 4.67897787e-04
 4.67897787e-04
 4.67897787e-04
 4.67897787e-04
 4.67897787e-04
 4.67897787e-04
 4.67897787e-04
 4.67897787e-04
 4.67897787e-04
 4.67897787e-04
 4.67897787e-04
 4.67897787e-04
 4.67897787e-04
 4.67897787e-04
 4.67897787e-04
 1.91155643e-02
 1.91155643e-02
 1.91155643e-02
 1.91155643e-02
 1.91155643e-02
 1.91155643e-02
 1.33793417e-02
 1.33793417e-02
 1.33793417e-02
 1.33793417e-02
 1.33793417e-02
 1.33793417e-02
 1.33793417e-02
 1.33793417e-02
 1.33793417e-02
 1.33793417e-02
 1.33793417e-02
 1.33793417e-02
 1.33793417e-02
 1.33793417e-02
 1.33793417e-02
 1.33793417e-02
 9.62072474e-03
 9.62072474e-03
 9.62072474e-03
 9.62072474e-03
 9.62072474e-03
 9.62072474e-03
 9.62072474e-03
 9.62072474e-03
 9.62072474e-03
 9.62072474e-03
 9.62072474e-03
 9.62072474e-03
 5.43525579e-03
 5.43525579e-03
 5.43525579e-03
 5.43525579e-03
 5.43525579e-03
 5.43525579e-03
 5.43525579e-03
 3.51353945e-03
 3.51353945e-03
 3.51353945e-03
 3.51353945e-03
 3.51353945e-03
 3.51353945e-03
 1.84381655e-03
 1.84381655e-03
 1.84381655e-03
 1.84381655e-03
 1.84381655e-03
 1.84381655e-03
 1.09766671e-03
 1.09766671e-03
 5.77585584e-04
 5.77585584e-04
)
)
1
(
101
(
 8.27829811e-04
 8.27829811e-04
 8.27829811e-04
 8.27829811e-04
 8.27829811e-04
 8.27829811e-04
 8.27829811e-04
 8.27829811e-04
 8.27829811e-04
 8.27829811e-04
 8.27829811e-04
 8.27829811e-04
 8.27829811e-04
 8.27829811e-04
 8.27829811e-04
 8.27829811e-04
 8.27829811e-04
 8.27829811e-04
 8.27829811e-04
 8.27829811e-04
 8.27829811e-04
 8.27829811e-04
 8.27829811e-04
 8.27829811e-04
 8.27829811e-04
 8.27829811e-04
 8.27829811e-04
 8.27829811e-04
 8.27829811e-04
 8.27829811e-04
 8.27829811e-04
 8.27829811e-04
 8.27829811e-04
 8.27829811e-04
 8.27829811e-04
 8.27829811e-04
 8.27829811e-04
 8.27829811e-04
 8.27829811e-04
 8.27829811e-04
 8.27829811e-04
 8.27829811e-04
 8.27829811e-04
 8.27829811e-04
 2.56627769e-02
 1.91155643e-02
 1.91155643e-02
 1.91155643e-02
 1.91155643e-02
 1.91155643e-02
 1.91155643e-02
 1.33793417e-02
 1.33793417e-02
 1.33793417e-02
 1.33793417e-02
 1.33793417e-02
 1.33793417e-02
 1.33793417e-02
 1.33793417e-02
 1.33793417e-02
 1.33793417e-02
 1.33793417e-02
 1.33793417e-02
 1.33793417e-02
 1.33793417e-02
 1.33793417e-02
 1.33793417e-02
 9.62072474e-03
 9.62072474e-03
 9.62072474e-03
 9.62072474e-03
 9.62072474e-03
 9.62072474e-03
 9.62072474e-03
 9.62072474e-03
 9.62072474e-03
 9.62072474e-03
 9.62072474e-03
 9.62072474e-03
 7.44387442e-03
 5.43525579e-03
 5.43525579e-03
 5.43525579e-03
 5.43525579e-03
 5.43525579e-03
 5.43525579e-03
 3.51353945e-03
 3.51353945e-03
 3.51353945e-03
 3.51353945e-03
 3.51353945e-03
 3.51353945e-03
 3.51353945e-03
 1.84381655e-03
 1.84381655e-03
 1.84381655e-03
 1.84381655e-03
 1.84381655e-03
 1.09766671e-03
 7.89727120e-04
 7.89727120e-04
)
)
1
(
101
(
 1.24110511e-03
 1.24110511e-03
 1.24110511e-03
 1.24110511e-03
 1.24110511e-03
 1.24110511e-03
 1.24110511e-03
 1.24110511e-03
 1.24110511e-03
 1.24110511e-03
 1.24110511e-03
 1.24110511e-03
 1.24110511e-03
 1.24110511e-03
 1.24110511e-03
 1.24110511e-03
 1.24110511e-03
 1.24110511e-03
 1.24110511e-03
 1.24110511e-03
 1.24110511e-03
 1.24110511e-03
 1.24110511e-03
 1.24110511e-03
 1.24110511e-03
 1.24110511e-03
 1.24110511e-03
 1.24110511e-03
 1.24110511e-03
 1.24110511e-03
 1.24110511e-03
 1.24110511e-03
 1.24110511e-03
 1.24110511e-03
 1.24110511e-03
 1.24110511e-03
 1.24110511e-03
 1.24110511e-03
 1.24110511e-03
 1.24110511e-03
 1.24110511e-03
 1.24110511e-03
 1.24110511e-03
 1.24110511e-03
 2.56627769e-02
 2.56627769e-02
 2.56627769e-02
 1.91155643e-02
 1.91155643e-02
 1.91155643e-02
 1.91155643e-02
 1.91155643e-02
 1.91155643e-02
 1.33793417e-02
 1.33793417e-02
 1.33793417e-02
 1.33793417e-02
 1.33793417e-02
 1.33793417e-02
 1.33793417e-02
 1.33793417e-02
 1.33793417e-02
 1.33793417e-02
 1.33793417e-02
 1.33793417e-02
 1.33793417e-02
 1.33793417e-02
 1.33793417e-02
 9.62072474e-03
 9.62072474e-03
 9.62072474e-03
 9.62072474e-03
 9.62072474e-03
 9.62072474e-03
 9.62072474e-03
 9.62072474e-03
 9.62072474e-03
 9.62072474e-03
 9.62072474e-03
 9.62072474e-03
 7.44387442e-03
 5.43525579e-03
 5.43525579e-03
 5.43525579e-03
 5.43525579e-03
 5.43525579e-03
 5.43525579e-03
 5.43525579e-03
 3.51353945e-03
 3.51353945e-03
 3.51353945e-03
 3.51353945e-03
 3.51353945e-03
 3.51353945e-03
 2.59555122e-03
 1.84381655e-03
 1.84381655e-03
 1.84381655e-03
 1.40834322e-03
 1.40834322e-03
 7.89727120e-04
)
)
1
(
101
(
 1.67793027e-03
 1.67793027e-03
 1.67793027e-03
 1.67793027e-03
 1.67793027e-03
 1.67793027e-03
 1.67793027e-03
 1.67793027e-03
 1.67793027e-03
 1.67793027e-03
 1.67793027e-03
 1.67793027e-03
 1.67793027e-03
 1.67793027e-03
 1.67793027e-03
 1.67793027e-03
 1.67793027e-03
 1.67793027e-03
 1.67793027e-03
 1.67793027e-03
 1.67793027e-03
 1.67793027e-03
 1.67793027e-03
 1.67793027e-03
 1.67793027e-03
 1.67793027e-03
 1.67793027e-03
 1.67793027e-03
 1.67793027e-03
 1.67793027e-03
 1.67793027e-03
 1.67793027e-03
 1.67793027e-03
 1.67793027e-03
 1.67793027e-03
 1.67793027e-03
 1.67793027e-03
 1.67793027e-03
 1.67793027e-03
 1.67793027e-03
 1.67793027e-03
 1.67793027e-03
 7.37330954e-03
 2.56627769e-02
 2.56627769e-02
 2.56627769e-02
 2.56627769e-02
 2.56627769e-02
 1.91155643e-02
 1.91155643e-02
 1.91155643e-02
 1.91155643e-02
 1.91155643e-02
 1.91155643e-02
 1.33793417e-02
 1.33793417e-02
 1.33793417e-02
 1.33793417e-02
 1.33793417e-02
 1.33793417e-02
 1.33793417e-02
 1.33793417e-02
 1.33793417e-02
 1.33793417e-02
 1.33793417e-02
 1.33793417e-02
 1.33793417e-02
 1.33793417e-02
 1.33793417e-02
 1.33793417e-02
 9.62072474e-03
 9.62072474e-03
 9.62072474e-03
 9.62072474e-03
 9.62072474e-03
 9.62072474e-03
 9.62072474e-03
 9.62072474e-03
 9.62072474e-03
 9.62072474e-03
 9.62072474e-03
 7.44387442e-03
 7.44387442e-03
 5.43525579e-03
 5.43525579e-03
 5.43525579e-03
 5.43525579e-03
 5.43525579e-03
 5.43525579e-03
 3.51353945e-03
 3.51353945e-03
 3.51353945e-03
 3.51353945e-03
 3.51353945e-03
 3.51353945e-03
 2.59555122e-03
 2.59555122e-03
 1.96869187e-03
 1.96869187e-03
 1.40834322e-03
 1.40834322e-03
)
)
1
(
101
(
 2.15693284e-03
 2.15693284e-03
 2.15693284e-03
 2.15693284e-03
 2.15693284e-03
 2.15693284e-03
 2.15693284e-03
 2.15693284e-03
 2.15693284e-03
 2.15693284e-03
 2.15693284e-03
 2.15693284e-03
 2.15693284e-03
 2.15693284e-03
 2.15693284e-03
 2.15693284e-03
 2.15693284e-03
 2.15693284e-03
 2.15693284e-03
 2.15693284e-03
 2.15693284e-03
 2.15693284e-03
 2.15693284e-03
 2.15693284e-03
 2.15693284e-03
 2.15693284e-03
 2.15693284e-03
 2.15693284e-03
 2.15693284e-03
 2.15693284e-03
 2.15693284e-03
 2.15693284e-03
 2.15693284e-03
 7.37330954e-03
 7.37330954e-03
 7.37330954e-03
 7.37330954e-03
 7.37330954e-03
 7.37330954e-03
 7.37330954e-03
 7.37330954e-03
 7.37330954e-03
 7.37330954e-03
 2.56627769e-02
 2.56627769e-02
 2.56627769e-02
 2.56627769e-02
 2.56627769e-02
 2.56627769e-02
 1.91155643e-02
 1.91155643e-02
 1.91155643e-02
 1.91155643e-02
 1.91155643e-02
 1.91155643e-02
 1.91155643e-02
 1.33793417e-02
 1.33793417e-02
 1.33793417e-02
 1.33793417e-02
 1.33793417e-02
 1.33793417e-02
 1.33793417e-02
 1.33793417e-02
 1.33793417e-02
 1.33793417e-02
 1.33793417e-02
 1.33793417e-02
 1.33793417e-02
 1.33793417e-02
 1.33793417e-02
 9.62072474e-03
 9.62072474e-03
 9.62072474e-03
 9.62072474e-03
 9.62072474e-03
 9.62072474e-03
 9.62072474e-03
 9.62072474e-03
 9.62072474e-03
 9.62072474e-03
 9.62072474e-03
 7.44387442e-03
 7.44387442e-03
 5.43525579e-03
 5.43525579e-03
 5.43525579e-03
 5.43525579e-03
 5.43525579e-03
 5.43525579e-03
 5.43525579e-03
 3.51353945e-03
 3.51353945e-03
 3.51353945e-03
 3.51353945e-03
 3.51353945e-03
 2.59555122e-03
 2.59555122e-03
 1.96869187e-03
 1.96869187e-03
 1.40834322e-03
)
)
1
(
101
(
 2.69544483e-03
 2.69544483e-03
 2.69544483e-03
 2.69544483e-03
 2.69544483e-03
 2.69544483e-03
 2.69544483e-03
 2.69544483e-03
 2.69544483e-03
 2.69544483e-03
 2.69544483e-03
 2.69544483e-03
 2.69544483e-03
 2.69544483e-03
 2.69544483e-03
 2.69544483e-03
 2.69544483e-03
 2.69544483e-03
 2.69544483e-03
 2.69544483e-03
 2.69544483e-03
 2.69544483e-03
 2.69544483e-03
 2.69544483e-03
 2.69544483e-03
 2.69544483e-03
 7.37330954e-03
 7.37330954e-03
 7.37330954e-03
 7.37330954e-03
 7.37330954e-03
 7.37330954e-03
 7.37330954e-03
 7.37330954e-03
 7.37330954e-03
 7.37330954e-03
 7.37330954e-03
 7.37330954e-03
 7.37330954e-03
 7.37330954e-03
 7.37330954e-03
 7.37330954e-03
 7.37330954e-03
 2.56627769e-02
 2.56627769e-02
 2.56627769e-02
 2.56627769e-02
 2.56627769e-02
 2.56627769e-02
 2.56627769e-02
 1.91155643e-02
 1.91155643e-02
 1.91155643e-02
 1.91155643e-02
 1.91155643e-02
 1.91155643e-02
 1.91155643e-02
 1.33793417e-02
 1.33793417e-02
 1.33793417e-02
 1.33793417e-02
 1.33793417e-02
 1.33793417e-02
 1.33793417e-02
 1.33793417e-02
 1.33793417e-02
 1.33793417e-02
 1.33793417e-02
 1.33793417e-02
 1.33793417e-02
 1.33793417e-02
 1.33793417e-02
 9.62072474e-03
 9.62072474e-03
 9.62072474e-03
 9.62072474e-03
 9.62072474e-03
 9.62072474e-03
 9.62072474e-03
 9.62072474e-03
 9.62072474e-03
 9.62072474e-03
 9.62072474e-03
 7.44387442e-03
 7.44387442e-03
 7.44387442e-03
 5.43525579e-03
 5.43525579e-03
 5.43525579e-03
 5.43525579e-03
 5.43525579e-03
 5.43525579e-03
 4.46257712e-03
 3.51353945e-03
 3.51353945e-03
 3.51353945e-03
 2.92100667e-03
 2.92100667e-03
 2.92100667e-03
 1.96869187e-03
 1.96869187e-03
)
)
1
(
101
(
 3.24969779e-03
 3.24969779e-03
 3.24969779e-03
 3.24969779e-03
 3.24969779e-03
 3.24969779e-03
 3.24969779e-03
 3.24969779e-03
 3.24969779e-03
 3.24969779e-03
 3.24969779e-03
 3.24969779e-03
 3.24969779e-03
 3.24969779e-03
 3.24969779e-03
 3.24969779e-03
 3.24969779e-03
 3.24969779e-03
 3.24969779e-03
 7.37330954e-03
 7.37330954e-03
 7.37330954e-03
 7.37330954e-03
 7.37330954e-03
 7.37330954e-03
 7.37330954e-03
 7.37330954e-03
 7.37330954e-03
 7.37330954e-03
 7.37330954e-03
 7.37330954e-03
 7.37330954e-03
 7.37330954e-03
 7.37330954e-03
 7.37330954e-03
 7.37330954e-03
 7.37330954e-03
 7.37330954e-03
 7.37330954e-03
 7.37330954e-03
 7.37330954e-03
 7.37330954e-03
 2.56627769e-02
 2.56627769e-02
 2.56627769e-02
 2.56627769e-02
 2.56627769e-02
 2.56627769e-02
 2.56627769e-02
 2.56627769e-02
 2.56627769e-02
 1.91155643e-02
 1.91155643e-02
 1.91155643e-02
 1.91155643e-02
 1.91155643e-02
 1.91155643e-02
 1.91155643e-02
 1.91155643e-02
 1.33793417e-02
 1.33793417e-02
 1.33793417e-02
 1.33793417e-02
 1.33793417e-02
 1.33793417e-02
 1.33793417e-02
 1.33793417e-02
 1.33793417e-02
 1.33793417e-02
 1.33793417e-02
 1.33793417e-02
 1.33793417e-02
 1.33793417e-02
 9.62072474e-03
 9.62072474e-03
 9.62072474e-03
 9.62072474e-03
 9.62072474e-03
 9.62072474e-03
 9.62072474e-03
 9.62072474e-03
 9.62072474e-03
 9.62072474e-03
 9.62072474e-03
 7.44387442e-03
 7.44387442e-03
 7.44387442e-03
 5.43525579e-03
 5.43525579e-03
 5.43525579e-03
 5.43525579e-03
 5.43525579e-03
 5.43525579e-03
 4.46257712e-03
 4.46257712e-03
 3.63839994e-03
 3.63839994e-03
 2.92100667e-03
 2.92100667e-03
 2.92100667e-03
 2.92100667e-03
)
)
1
(
101
(
 3.84251119e-03
 3.84251119e-03
 3.84251119e-03
 3.84251119e-03
 3.84251119e-03
 3.84251119e-03
 3.84251119e-03
 3.84251119e-03
 3.84251119e-03
 3.84251119e-03
 3.84251119e-03
 3.84251119e-03
 3.84251119e-03
 3.84251119e-03
 7.37330954e-03
 7.37330954e-03
 7.37330954e-03
 7.37330954e-03
 7.37330954e-03
 7.37330954e-03
 7.37330954e-03
 7.37330954e-03
 7.37330954e-03
 7.37330954e-03
 7.37330954e-03
 7.37330954e-03
 7.37330954e-03
 7.37330954e-03
 7.37330954e-03
 7.37330954e-03
 7.37330954e-03
 7.37330954e-03
 7.37330954e-03
 7.37330954e-03
 7.37330954e-03
 7.37330954e-03
 7.37330954e-03
 7.37330954e-03
 7.37330954e-03
 7.37330954e-03
 7.37330954e-03
 7.37330954e-03
 2.56627769e-02
 2.56627769e-02
 2.56627769e-02
 2.56627769e-02
 2.56627769e-02
 2.56627769e-02
 2.56627769e-02
 2.56627769e-02
 2.56627769e-02
 2.56627769e-02
 1.91155643e-02
 1.91155643e-02
 1.91155643e-02
 1.91155643e-02
 1.91155643e-02
 1.91155643e-02
 1.91155643e-02
 1.91155643e-02
 1.33793417e-02
 1.33793417e-02
 1.33793417e-02
 1.33793417e-02
 1.33793417e-02
 1.33793417e-02
 1.33793417e-02
 1.33793417e-02
 1.33793417e-02
 1.33793417e-02
 1.33793417e-02
 1.33793417e-02
 1.33793417e-02
 1.33793417e-02
 1.33793417e-02
 9.62072474e-03
 9.62072474e-03
 9.62072474e-03
 9.62072474e-03
 9.62072474e-03
 9.62072474e-03
 9.62072474e-03
 9.62072474e-03
 9.62072474e-03
 9.62072474e-03
 7.44387442e-03
 7.44387442e-03
 7.44387442e-03
 7.44387442e-03
 5.43525579e-03
 5.43525579e-03
 5.43525579e-03
 5.43525579e-03
 5.43525579e-03
 4.46257712e-03
 4.46257712e-03
 3.63839994e-03
 3.63839994e-03
 2.92100667e-03
 2.92100667e-03
 2.92100667e-03
)
)
1
(
101
(
 4.47289052e-03
 4.47289052e-03
 4.47289052e-03
 4.47289052e-03
 4.47289052e-03
 4.47289052e-03
 4.47289052e-03
 4.47289052e-03
 4.47289052e-03
 7.37330954e-03
 7.37330954e-03
 7.37330954e-03
 7.37330954e-03
 7.37330954e-03
 7.37330954e-03
 7.37330954e-03
 7.37330954e-03
 7.37330954e-03
 7.37330954e-03
 7.37330954e-03
 7.37330954e-03
 7.37330954e-03
 7.37330954e-03
 7.37330954e-03
 7.37330954e-03
 7.37330954e-03
 7.37330954e-03
 7.37330954e-03
 7.37330954e-03
 7.37330954e-03
 7.37330954e-03
 7.37330954e-03
 7.37330954e-03
 7.37330954e-03
 7.37330954e-03
 7.37330954e-03
 7.37330954e-03
 7.37330954e-03
 7.37330954e-03
 7.37330954e-03
 7.37330954e-03
 7.37330954e-03
 2.56627769e-02
 2.56627769e-02
 2.56627769e-02
 2.56627769e-02
 2.56627769e-02
 2.56627769e-02
 2.56627769e-02
 2.56627769e-02
 2.56627769e-02
 2.56627769e-02
 2.56627769e-02
 2.56627769e-02
 1.91155643e-02
 1.91155643e-02
 1.91155643e-02
 1.91155643e-02
 1.91155643e-02
 1.91155643e-02
 1.91155643e-02
 1.91155643e-02
 1.33793417e-02
 1.33793417e-02
 1.33793417e-02
 1.33793417e-02
 1.33793417e-02
 1.33793417e-02
 1.33793417e-02
 1.33793417e-02
 1.33793417e-02
 1.33793417e-02
 1.33793417e-02
 1.33793417e-02
 1.33793417e-02
 1.33793417e-02
 9.62072474e-03
 9.62072474e-03
 9.62072474e-03
 9.62072474e-03
 9.62072474e-03
 9.62072474e-03
 9.62072474e-03
 9.62072474e-03
 9.62072474e-03
 9.62072474e-03
 7.44387442e-03
 7.44387442e-03
 7.44387442e-03
 7.44387442e-03
 6.42954369e-03
 5.43525579e-03
 5.43525579e-03
 5.43525579e-03
 5.43525579e-03
 4.46257712e-03
 4.46257712e-03
 3.63839994e-03
 3.63839994e-03
 2.92100667e-03
 2.92100667e-03
)
)
1
(
101
(
 5.11119842e-03
 5.11119842e-03
 5.11119842e-03
 5.11119842e-03
 5.11119842e-03
 5.11119842e-03
 7.37330954e-03
 7.37330954e-03
 7.37330954e-03
 7.37330954e-03
 7.37330954e-03
 7.37330954e-03
 7.37330954e-03
 7.37330954e-03
 7.37330954e-03
 7.37330954e-03
 7.37330954e-03
 7.37330954e-03
 7.37330954e-03
 7.37330954e-03
 7.37330954e-03
 7.37330954e-03
 7.37330954e-03
 7.37330954e-03
 7.37330954e-03
 7.37330954e-03
 7.37330954e-03
 7.37330954e-03
 7.37330954e-03
 7.37330954e-03
 7.37330954e-03
 7.37330954e-03
 7.37330954e-03
 7.37330954e-03
 7.37330954e-03
 7.37330954e-03
 7.37330954e-03
 7.37330954e-03
 7.37330954e-03
 7.37330954e-03
 7.37330954e-03
 7.37330954e-03
 2.56627769e-02
 2.56627769e-02
 2.56627769e-02
 2.56627769e-02
 2.56627769e-02
 2.56627769e-02
 2.56627769e-02
 2.56627769e-02
 2.56627769e-02
 2.56627769e-02
 2.56627769e-02
 2.56627769e-02
 2.56627769e-02
 1.91155643e-02
 1.91155643e-02
 1.91155643e-02
 1.91155643e-02
 1.91155643e-02
 1.91155643e-02
 1.91155643e-02
 1.91155643e-02
 1.33793417e-02
 1.33793417e-02
 1.33793417e-02
 1.33793417e-02
 1.33793417e-02
 1.33793417e-02
 1.33793417e-02
 1.33793417e-02
 1.33793417e-02
 1.33793417e-02
 1.33793417e-02
 1.33793417e-02
 1.33793417e-02
 1.33793417e-02
 9.62072474e-03
 9.62072474e-03
 9.62072474e-03
 9.62072474e-03
 9.62072474e-03
 9.62072474e-03
 9.62072474e-03
 9.62072474e-03
 9.62072474e-03
 9.62072474e-03
 7.44387442e-03
 7.44387442e-03
 7.44387442e-03
 7.44387442e-03
 6.42954369e-03
 6.42954369e-03
 5.32274904e-03
 5.32274904e-03
 5.32274904e-03
 4.46257712e-03
 4.46257712e-03
 3.63839994e-03
 3.63839994e-03
 2.92100667e-03
)
)
1
(
101
(
 5.83648677e-03
 5.83648677e-03
 5.83648677e-03
 7.37330954e-03
 7.37330954e-03
 7.37330954e-03
 7.37330954e-03
 7.37330954e-03
 7.37330954e-03
 7.37330954e-03
 7.37330954e-03
 7.37330954e-03
 7.37330954e-03
 7.37330954e-03
 7.37330954e-03
 7.37330954e-03
 7.37330954e-03
 7.37330954e-03
 7.37330954e-03
 7.37330954e-03
 7.37330954e-03
 7.37330954e-03
 7.37330954e-03
 7.37330954e-03
 7.37330954e-03
 7.37330954e-03
 7.37330954e-03
 7.37330954e-03
 7.37330954e-03
 7.37330954e-03
 7.37330954e-03
 7.37330954e-03
 7.37330954e-03
 7.37330954e-03
 7.37330954e-03
 7.37330954e-03
 7.37330954e-03
 7.37330954e-03
 7.37330954e-03
 7.37330954e-03
 7.37330954e-03
 3.18706285e-02
 2.56627769e-02
 2.56627769e-02
 2.56627769e-02
 2.56627769e-02
 2.56627769e-02
 2.56627769e-02
 2.56627769e-02
 2.56627769e-02
 2.56627769e-02
 2.56627769e-02
 2.56627769e-02
 2.56627769e-02
 2.56627769e-02
 2.56627769e-02
 1.91155643e-02
 1.91155643e-02
 1.91155643e-02
 1.91155643e-02
 1.91155643e-02
 1.91155643e-02
 1.91155643e-02
 1.91155643e-02
 1.91155643e-02
 1.33793417e-02
 1.33793417e-02
 1.33793417e-02
 1.33793417e-02
 1.33793417e-02
 1.33793417e-02
 1.33793417e-02
 1.33793417e-02
 1.33793417e-02
 1.33793417e-02
 1.33793417e-02
 1.33793417e-02
 1.33793417e-02
 9.62072474e-03
 9.62072474e-03
 9.62072474e-03
 9.62072474e-03
 9.62072474e-03
 9.62072474e-03
 9.62072474e-03
 9.62072474e-03
 9.62072474e-03
 9.62072474e-03
 7.44387442e-03
 7.44387442e-03
 7.44387442e-03
 7.44387442e-03
 6.42954369e-03
 6.42954369e-03
 5.32274904e-03
 5.32274904e-03
 5.32274904e-03
 5.32274904e-03
 4.46257712e-03
 3.63839994e-03
 3.63839994e-03
)
)
1
(
101
(
 6.42382094e-03
 6.42382094e-03
 7.37330954e-03
 7.37330954e-03
 7.37330954e-03
 7.37330954e-03
 7.37330954e-03
 7.37330954e-03
 7.37330954e-03
 7.37330954e-03
 7.37330954e-03
 7.37330954e-03
 7.37330954e-03
 7.37330954e-03
 7.37330954e-03
 7.37330954e-03
 7.37330954e-03
 7.37330954e-03
 7.37330954e-03
 7.37330954e-03
 7.37330954e-03
 7.37330954e-03
 7.37330954e-03
 7.37330954e-03
 7.37330954e-03
 7.37330954e-03
 7.37330954e-03
 7.37330954e-03
 7.37330954e-03
 7.37330954e-03
 7.37330954e-03
 7.37330954e-03
 7.37330954e-03
 7.37330954e-03
 7.37330954e-03
 7.37330954e-03
 7.37330954e-03
 7.37330954e-03
 7.37330954e-03
 7.37330954e-03
 7.37330954e-03
 3.18706285e-02
 3.18706285e-02
 2.56627769e-02
 2.56627769e-02
 2.56627769e-02
 2.56627769e-02
 2.56627769e-02
 2.56627769e-02
 2.56627769e-02
 2.56627769e-02
 2.56627769e-02
 2.56627769e-02
 2.56627769e-02
 2.56627769e-02
 2.56627769e-02
 2.56627769e-02
 1.91155643e-02
 1.91155643e-02
 1.91155643e-02
 1.91155643e-02
 1.91155643e-02
 1.91155643e-02
 1.91155643e-02
 1.91155643e-02
 1.91155643e-02
 1.33793417e-02
 1.33793417e-02
 1.33793417e-02
 1.33793417e-02
 1.33793417e-02
 1.33793417e-02
 1.33793417e-02
 1.33793417e-02
 1.33793417e-02
 1.33793417e-02
 1.33793417e-02
 1.33793417e-02
 1.33793417e-02
 1.33793417e-02
 9.62072474e-03
 9.62072474e-03
 9.62072474e-03
 9.62072474e-03
 9.62072474e-03
 9.62072474e-03
 9.62072474e-03
 9.62072474e-03
 8.52094092e-03
 7.44387442e-03
 7.44387442e-03
 7.44387442e-03
 6.08925426e-03
 6.08925426e-03
 6.08925426e-03
 5.32274904e-03
 5.32274904e-03
 5.32274904e-03
 5.32274904e-03
 5.32274904e-03
 3.63839994e-03
)
)
1
(
101
(
 6.93542608e-03
 7.37330954e-03
 7.37330954e-03
 7.37330954e-03
 7.37330954e-03
 7.37330954e-03
 7.37330954e-03
 7.37330954e-03
 7.37330954e-03
 7.37330954e-03
 7.37330954e-03
 7.37330954e-03
 7.37330954e-03
 7.37330954e-03
 7.37330954e-03
 7.37330954e-03
 7.37330954e-03
 7.37330954e-03
 7.37330954e-03
 7.37330954e-03
 7.37330954e-03
 7.37330954e-03
 7.37330954e-03
 7.37330954e-03
 7.37330954e-03
 7.37330954e-03
 7.37330954e-03
 7.37330954e-03
 7.37330954e-03
 7.37330954e-03
 7.37330954e-03
 7.37330954e-03
 7.37330954e-03
 7.37330954e-03
 7.37330954e-03
 7.37330954e-03
 7.37330954e-03
 7.37330954e-03
 7.37330954e-03
 7.37330954e-03
 3.18706285e-02
 3.18706285e-02
 3.18706285e-02
 3.18706285e-02
 2.56627769e-02
 2.56627769e-02
 2.56627769e-02
 2.56627769e-02
 2.56627769e-02
 2.56627769e-02
 2.56627769e-02
 2.56627769e-02
 2.56627769e-02
 2.56627769e-02
 2.56627769e-02
 2.56627769e-02
 2.56627769e-02
 2.56627769e-02
 1.91155643e-02
 1.91155643e-02
 1.91155643e-02
 1.91155643e-02
 1.91155643e-02
 1.91155643e-02
 1.91155643e-02
 1.91155643e-02
 1.91155643e-02
 1.91155643e-02
 1.33793417e-02
 1.33793417e-02
 1.33793417e-02
 1.33793417e-02
 1.33793417e-02
 1.33793417e-02
 1.33793417e-02
 1.33793417e-02
 1.33793417e-02
 1.33793417e-02
 1.33793417e-02
 1.33793417e-02
 1.33793417e-02
 1.14131479e-02
 9.62072474e-03
 9.62072474e-03
 9.62072474e-03
 9.62072474e-03
 9.62072474e-03
 9.62072474e-03
 9.62072474e-03
 8.52094092e-03
 8.52094092e-03
 7.55526525e-03
 7.55526525e-03
 6.08925426e-03
 6.08925426e-03
 6.08925426e-03
 6.08925426e-03
 5.32274904e-03
 5.32274904e-03
 5.32274904e-03
 5.32274904e-03
)
)
1
(
101
(
 6.93542608e-03
 7.91826171e-03
 7.91826171e-03
 7.91826171e-03
 7.91826171e-03
 7.91826171e-03
 7.91826171e-03
 7.91826171e-03
 7.91826171e-03
 7.91826171e-03
 7.91826171e-03
 7.91826171e-03
 7.91826171e-03
 7.91826171e-03
 7.91826171e-03
 7.91826171e-03
 7.91826171e-03
 7.91826171e-03
 7.91826171e-03
 7.91826171e-03
 7.91826171e-03
 7.91826171e-03
 7.91826171e-03
 7.91826171e-03
 7.91826171e-03
 7.91826171e-03
 7.91826171e-03
 7.91826171e-03
 7.91826171e-03
 7.91826171e-03
 7.91826171e-03
 7.91826171e-03
 7.91826171e-03
 7.91826171e-03
 7.91826171e-03
 7.91826171e-03
 7.91826171e-03
 7.91826171e-03
 7.91826171e-03
 7.91826171e-03
 3.18706285e-02
 3.18706285e-02
 3.18706285e-02
 3.18706285e-02
 3.18706285e-02
 2.56627769e-02
 2.56627769e-02
 2.56627769e-02
 2.56627769e-02
 2.56627769e-02
 2.56627769e-02
 2.56627769e-02
 2.56627769e-02
 2.56627769e-02
 2.56627769e-02
 2.56627769e-02
 2.56627769e-02
 2.56627769e-02
 2.56627769e-02
 1.91155643e-02
 1.91155643e-02
 1.91155643e-02
 1.91155643e-02
 1.91155643e-02
 1.91155643e-02
 1.91155643e-02
 1.91155643e-02
 1.91155643e-02
 1.91155643e-02
 1.33793417e-02
 1.33793417e-02
 1.33793417e-02
 1.33793417e-02
 1.33793417e-02
 1.33793417e-02
 1.33793417e-02
 1.33793417e-02
 1.33793417e-02
 1.33793417e-02
 1.33793417e-02
 1.33793417e-02
 1.33793417e-02
 1.14131479e-02
 1.14131479e-02
 9.62072474e-03
 9.62072474e-03
 9.62072474e-03
 9.62072474e-03
 9.62072474e-03
 8.52094092e-03
 8.52094092e-03
 8.52094092e-03
 7.55526525e-03
 7.55526525e-03
 6.08925426e-03
 6.08925426e-03
 6.08925426e-03
 6.08925426e-03
 6.08925426e-03
 5.32274904e-03
 5.32274904e-03
)
)
1
(
101
(
 8.71267988e-03
 8.71267988e-03
 8.71267988e-03
 8.71267988e-03
 8.71267988e-03
 8.71267988e-03
 8.71267988e-03
 8.71267988e-03
 8.71267988e-03
 8.71267988e-03
 8.71267988e-03
 8.71267988e-03
 8.71267988e-03
 8.71267988e-03
 8.71267988e-03
 8.71267988e-03
 8.71267988e-03
 8.71267988e-03
 8.71267988e-03
 8.71267988e-03
 8.71267988e-03
 8.71267988e-03
 8.71267988e-03
 8.71267988e-03
 8.71267988e-03
 8.71267988e-03
 8.71267988e-03
 8.71267988e-03
 8.71267988e-03
 8.71267988e-03
 8.71267988e-03
 8.71267988e-03
 8.71267988e-03
 8.71267988e-03
 8.71267988e-03
 8.71267988e-03
 8.71267988e-03
 8.71267988e-03
 8.71267988e-03
 8.71267988e-03
 3.18706285e-02
 3.18706285e-02
 3.18706285e-02
 3.18706285e-02
 3.18706285e-02
 3.18706285e-02
 2.56627769e-02
 2.56627769e-02
 2.56627769e-02
 2.56627769e-02
 2.56627769e-02
 2.56627769e-02
 2.56627769e-02
 2.56627769e-02
 2.56627769e-02
 2.56627769e-02
 2.56627769e-02
 2.56627769e-02
 2.56627769e-02
 2.56627769e-02
 2.56627769e-02
 1.91155643e-02
 1.91155643e-02
 1.91155643e-02
 1.91155643e-02
 1.91155643e-02
 1.91155643e-02
 1.91155643e-02
 1.91155643e-02
 1.91155643e-02
 1.91155643e-02
 1.33793417e-02
 1.33793417e-02
 1.33793417e-02
 1.33793417e-02
 1.33793417e-02
 1.33793417e-02
 1.33793417e-02
 1.33793417e-02
 1.33793417e-02
 1.33793417e-02
 1.33793417e-02
 1.33793417e-02
 1.14131479e-02
 1.14131479e-02
 1.14131479e-02
 9.62072474e-03
 9.62072474e-03
 9.62072474e-03
 9.62072474e-03
 8.52094092e-03
 8.52094092e-03
 8.52094092e-03
 7.55526525e-03
 7.55526525e-03
 6.08925426e-03
 6.08925426e-03
 6.08925426e-03
 6.08925426e-03
 6.08925426e-03
 6.08925426e-03
)
)
1
(
101
(
 9.52339432e-03
 9.52339432e-03
 9.52339432e-03
 9.52339432e-03
 9.52339432e-03
 9.52339432e-03
 9.52339432e-03
 9.52339432e-03
 9.52339432e-03
 9.52339432e-03
 9.52339432e-03
 9.52339432e-03
 9.52339432e-03
 9.52339432e-03
 9.52339432e-03
 9.52339432e-03
 9.52339432e-03
 9.52339432e-03
 9.52339432e-03
 9.52339432e-03
 9.52339432e-03
 9.52339432e-03
 9.52339432e-03
 9.52339432e-03
 9.52339432e-03
 9.52339432e-03
 9.52339432e-03
 9.52339432e-03
 9.52339432e-03
 9.52339432e-03
 9.52339432e-03
 9.52339432e-03
 9.52339432e-03
 9.52339432e-03
 9.52339432e-03
 9.52339432e-03
 9.52339432e-03
 9.52339432e-03
 9.52339432e-03
 3.18706285e-02
 3.18706285e-02
 3.18706285e-02
 3.18706285e-02
 3.18706285e-02
 3.18706285e-02
 3.18706285e-02
 3.18706285e-02
 3.18706285e-02
 2.56627769e-02
 2.56627769e-02
 2.56627769e-02
 2.56627769e-02
 2.56627769e-02
 2.56627769e-02
 2.56627769e-02
 2.56627769e-02
 2.56627769e-02
 2.56627769e-02
 2.56627769e-02
 2.56627769e-02
 2.56627769e-02
 2.56627769e-02
 1.91155643e-02
 1.91155643e-02
 1.91155643e-02
 1.91155643e-02
 1.91155643e-02
 1.91155643e-02
 1.91155643e-02
 1.91155643e-02
 1.91155643e-02
 1.91155643e-02
 1.33793417e-02
 1.33793417e-02
 1.33793417e-02
 1.33793417e-02
 1.33793417e-02
 1.33793417e-02
 1.33793417e-02
 1.33793417e-02
 1.33793417e-02
 1.33793417e-02
 1.33793417e-02
 1.33793417e-02
 1.14131479e-02
 1.14131479e-02
 1.14131479e-02
 1.14131479e-02
 1.02730737e-02
 1.02730737e-02
 1.02730737e-02
 8.52094092e-03
 8.52094092e-03
 8.52094092e-03
 7.55526525e-03
 7.55526525e-03
 6.08925426e-03
 6.08925426e-03
 6.08925426e-03