/*--------------------------------*- C++ -*----------------------------------*\
| =========                 |                                                 |
| \\      /  F ield        | OpenFOAM: The Open Source CFD Toolbox           |
|  \\    /   O peration    | Version:  7                                     |
|   \\  /    A nd          | Web:      http://www.OpenFOAM.com               |
|    \\/     M anipulation |                                                 |
\*---------------------------------------------------------------------------*/

FoamFile
{
    version     2.0;
    format      ascii;
    class       dictionary;
    object      Y_CO_table;
}

Y_CO_table
2
(
101
(
1
(
101
(
 2.67312106e-07
 2.67312106e-07
 2.67312106e-07
 2.67312106e-07
 2.67312106e-07
 2.67312106e-07
 2.67312106e-07
 2.67312106e-07
 2.67312106e-07
 2.67312106e-07
 2.67312106e-07
 2.67312106e-07
 2.67312106e-07
 2.67312106e-07
 2.67312106e-07
 2.67312106e-07
 2.67312106e-07
 2.67312106e-07
 2.67312106e-07
 2.67312106e-07
 2.67312106e-07
 2.67312106e-07
 2.67312106e-07
 2.67312106e-07
 2.67312106e-07
 2.67312106e-07
 2.67312106e-07
 2.67312106e-07
 2.67312106e-07
 2.67312106e-07
 2.67312106e-07
 2.67312106e-07
 2.67312106e-07
 2.67312106e-07
 2.67312106e-07
 2.67312106e-07
 2.67312106e-07
 2.67312106e-07
 2.67312106e-07
 2.67312106e-07
 2.67312106e-07
 2.67312106e-07
 2.67312106e-07
 2.67312106e-07
 2.67312106e-07
 1.17406350e-02
 1.17406350e-02
 9.36466692e-03
 9.36466692e-03
 9.36466692e-03
 9.36466692e-03
 9.36466692e-03
 9.36466692e-03
 9.36466692e-03
 9.36466692e-03
 9.36466692e-03
 9.36466692e-03
 9.36466692e-03
 9.36466692e-03
 9.36466692e-03
 9.36466692e-03
 9.36466692e-03
 9.36466692e-03
 7.20471038e-03
 7.20471038e-03
 7.20471038e-03
 7.20471038e-03
 7.20471038e-03
 7.20471038e-03
 7.20471038e-03
 7.20471038e-03
 7.20471038e-03
 7.20471038e-03
 7.20471038e-03
 7.20471038e-03
 4.09119094e-03
 4.09119094e-03
 4.09119094e-03
 4.09119094e-03
 4.09119094e-03
 4.09119094e-03
 4.09119094e-03
 2.86869694e-03
 2.86869694e-03
 2.86869694e-03
 2.86869694e-03
 2.86869694e-03
 2.86869694e-03
 1.67862267e-03
 1.67862267e-03
 1.67862267e-03
 1.67862267e-03
 1.67862267e-03
 1.67862267e-03
 1.67862267e-03
 3.98323642e-04
 3.98323642e-04
 3.98323642e-04
 3.98323642e-04
 3.98323642e-04
 5.27774072e-06
)
)
1
(
101
(
 1.44617823e-05
 1.44617823e-05
 1.44617823e-05
 1.44617823e-05
 1.44617823e-05
 1.44617823e-05
 1.44617823e-05
 1.44617823e-05
 1.44617823e-05
 1.44617823e-05
 1.44617823e-05
 1.44617823e-05
 1.44617823e-05
 1.44617823e-05
 1.44617823e-05
 1.44617823e-05
 1.44617823e-05
 1.44617823e-05
 1.44617823e-05
 1.44617823e-05
 1.44617823e-05
 1.44617823e-05
 1.44617823e-05
 1.44617823e-05
 1.44617823e-05
 1.44617823e-05
 1.44617823e-05
 1.44617823e-05
 1.44617823e-05
 1.44617823e-05
 1.44617823e-05
 1.44617823e-05
 1.44617823e-05
 1.44617823e-05
 1.44617823e-05
 1.44617823e-05
 1.44617823e-05
 1.44617823e-05
 1.44617823e-05
 1.44617823e-05
 1.44617823e-05
 1.44617823e-05
 1.44617823e-05
 1.44617823e-05
 1.44617823e-05
 1.17406350e-02
 1.17406350e-02
 1.17406350e-02
 9.36466692e-03
 9.36466692e-03
 9.36466692e-03
 9.36466692e-03
 9.36466692e-03
 9.36466692e-03
 9.36466692e-03
 9.36466692e-03
 9.36466692e-03
 9.36466692e-03
 9.36466692e-03
 9.36466692e-03
 9.36466692e-03
 9.36466692e-03
 9.36466692e-03
 9.36466692e-03
 9.36466692e-03
 7.20471038e-03
 7.20471038e-03
 7.20471038e-03
 7.20471038e-03
 7.20471038e-03
 7.20471038e-03
 7.20471038e-03
 7.20471038e-03
 7.20471038e-03
 7.20471038e-03
 7.20471038e-03
 7.20471038e-03
 4.09119094e-03
 4.09119094e-03
 4.09119094e-03
 4.09119094e-03
 4.09119094e-03
 4.09119094e-03
 2.86869694e-03
 2.86869694e-03
 2.86869694e-03
 2.86869694e-03
 2.86869694e-03
 2.86869694e-03
 2.86869694e-03
 1.67862267e-03
 1.67862267e-03
 1.67862267e-03
 1.67862267e-03
 1.67862267e-03
 1.67862267e-03
 1.13711019e-03
 3.98323642e-04
 3.98323642e-04
 3.98323642e-04
 2.19278673e-04
)
)
1
(
101
(
 3.45171605e-05
 3.45171605e-05
 3.45171605e-05
 3.45171605e-05
 3.45171605e-05
 3.45171605e-05
 3.45171605e-05
 3.45171605e-05
 3.45171605e-05
 3.45171605e-05
 3.45171605e-05
 3.45171605e-05
 3.45171605e-05
 3.45171605e-05
 3.45171605e-05
 3.45171605e-05
 3.45171605e-05
 3.45171605e-05
 3.45171605e-05
 3.45171605e-05
 3.45171605e-05
 3.45171605e-05
 3.45171605e-05
 3.45171605e-05
 3.45171605e-05
 3.45171605e-05
 3.45171605e-05
 3.45171605e-05
 3.45171605e-05
 3.45171605e-05
 3.45171605e-05
 3.45171605e-05
 3.45171605e-05
 3.45171605e-05
 3.45171605e-05
 3.45171605e-05
 3.45171605e-05
 3.45171605e-05
 3.45171605e-05
 3.45171605e-05
 3.45171605e-05
 3.45171605e-05
 3.45171605e-05
 3.45171605e-05
 1.17406350e-02
 1.17406350e-02
 1.17406350e-02
 1.17406350e-02
 1.17406350e-02
 1.17406350e-02
 9.36466692e-03
 9.36466692e-03
 9.36466692e-03
 9.36466692e-03
 9.36466692e-03
 9.36466692e-03
 9.36466692e-03
 9.36466692e-03
 9.36466692e-03
 9.36466692e-03
 9.36466692e-03
 9.36466692e-03
 9.36466692e-03
 9.36466692e-03
 9.36466692e-03
 9.36466692e-03
 7.20471038e-03
 7.20471038e-03
 7.20471038e-03
 7.20471038e-03
 7.20471038e-03
 7.20471038e-03
 7.20471038e-03
 7.20471038e-03
 7.20471038e-03
 7.20471038e-03
 7.20471038e-03
 7.20471038e-03
 4.09119094e-03
 4.09119094e-03
 4.09119094e-03
 4.09119094e-03
 4.09119094e-03
 4.09119094e-03
 4.09119094e-03
 2.86869694e-03
 2.86869694e-03
 2.86869694e-03
 2.86869694e-03
 2.86869694e-03
 2.86869694e-03
 1.67862267e-03
 1.67862267e-03
 1.67862267e-03
 1.67862267e-03
 1.67862267e-03
 1.67862267e-03
 1.13711019e-03
 1.13711019e-03
 6.68833218e-04
 6.68833218e-04
)
)
1
(
101
(
 4.61354839e-05
 4.61354839e-05
 4.61354839e-05
 4.61354839e-05
 4.61354839e-05
 4.61354839e-05
 4.61354839e-05
 4.61354839e-05
 4.61354839e-05
 4.61354839e-05
 4.61354839e-05
 4.61354839e-05
 4.61354839e-05
 4.61354839e-05
 4.61354839e-05
 4.61354839e-05
 4.61354839e-05
 4.61354839e-05
 4.61354839e-05
 4.61354839e-05
 4.61354839e-05
 4.61354839e-05
 4.61354839e-05
 4.61354839e-05
 4.61354839e-05
 4.61354839e-05
 4.61354839e-05
 4.61354839e-05
 4.61354839e-05
 4.61354839e-05
 4.61354839e-05
 4.61354839e-05
 4.61354839e-05
 4.61354839e-05
 4.61354839e-05
 4.61354839e-05
 4.61354839e-05
 4.61354839e-05
 4.61354839e-05
 4.61354839e-05
 4.61354839e-05
 4.61354839e-05
 4.61354839e-05
 4.61354839e-05
 1.52056303e-02
 1.17406350e-02
 1.17406350e-02
 1.17406350e-02
 1.17406350e-02
 1.17406350e-02
 1.17406350e-02
 9.36466692e-03
 9.36466692e-03
 9.36466692e-03
 9.36466692e-03
 9.36466692e-03
 9.36466692e-03
 9.36466692e-03
 9.36466692e-03
 9.36466692e-03
 9.36466692e-03
 9.36466692e-03
 9.36466692e-03
 9.36466692e-03
 9.36466692e-03
 9.36466692e-03
 9.36466692e-03
 7.20471038e-03
 7.20471038e-03
 7.20471038e-03
 7.20471038e-03
 7.20471038e-03
 7.20471038e-03
 7.20471038e-03
 7.20471038e-03
 7.20471038e-03
 7.20471038e-03
 7.20471038e-03
 7.20471038e-03
 5.48316302e-03
 4.09119094e-03
 4.09119094e-03
 4.09119094e-03
 4.09119094e-03
 4.09119094e-03
 4.09119094e-03
 2.86869694e-03
 2.86869694e-03
 2.86869694e-03
 2.86869694e-03
 2.86869694e-03
 2.86869694e-03
 2.86869694e-03
 1.67862267e-03
 1.67862267e-03
 1.67862267e-03
 1.67862267e-03
 1.67862267e-03
 1.13711019e-03
 9.47860062e-04
 9.47860062e-04
)
)
1
(
101
(
 7.22906146e-05
 7.22906146e-05
 7.22906146e-05
 7.22906146e-05
 7.22906146e-05
 7.22906146e-05
 7.22906146e-05
 7.22906146e-05
 7.22906146e-05
 7.22906146e-05
 7.22906146e-05
 7.22906146e-05
 7.22906146e-05
 7.22906146e-05
 7.22906146e-05
 7.22906146e-05
 7.22906146e-05
 7.22906146e-05
 7.22906146e-05
 7.22906146e-05
 7.22906146e-05
 7.22906146e-05
 7.22906146e-05
 7.22906146e-05
 7.22906146e-05
 7.22906146e-05
 7.22906146e-05
 7.22906146e-05
 7.22906146e-05
 7.22906146e-05
 7.22906146e-05
 7.22906146e-05
 7.22906146e-05
 7.22906146e-05
 7.22906146e-05
 7.22906146e-05
 7.22906146e-05
 7.22906146e-05
 7.22906146e-05
 7.22906146e-05
 7.22906146e-05
 7.22906146e-05
 7.22906146e-05
 7.22906146e-05
 1.52056303e-02
 1.52056303e-02
 1.52056303e-02
 1.17406350e-02
 1.17406350e-02
 1.17406350e-02
 1.17406350e-02
 1.17406350e-02
 1.17406350e-02
 9.36466692e-03
 9.36466692e-03
 9.36466692e-03
 9.36466692e-03
 9.36466692e-03
 9.36466692e-03
 9.36466692e-03
 9.36466692e-03
 9.36466692e-03
 9.36466692e-03
 9.36466692e-03
 9.36466692e-03
 9.36466692e-03
 9.36466692e-03
 9.36466692e-03
 7.20471038e-03
 7.20471038e-03
 7.20471038e-03
 7.20471038e-03
 7.20471038e-03
 7.20471038e-03
 7.20471038e-03
 7.20471038e-03
 7.20471038e-03
 7.20471038e-03
 7.20471038e-03
 7.20471038e-03
 5.48316302e-03
 4.09119094e-03
 4.09119094e-03
 4.09119094e-03
 4.09119094e-03
 4.09119094e-03
 4.09119094e-03
 4.09119094e-03
 2.86869694e-03
 2.86869694e-03
 2.86869694e-03
 2.86869694e-03
 2.86869694e-03
 2.86869694e-03
 2.44493634e-03
 1.67862267e-03
 1.67862267e-03
 1.67862267e-03
 1.45075098e-03
 1.45075098e-03
 9.47860062e-04
)
)
1
(
101
(
 8.70878194e-05
 8.70878194e-05
 8.70878194e-05
 8.70878194e-05
 8.70878194e-05
 8.70878194e-05
 8.70878194e-05
 8.70878194e-05
 8.70878194e-05
 8.70878194e-05
 8.70878194e-05
 8.70878194e-05
 8.70878194e-05
 8.70878194e-05
 8.70878194e-05
 8.70878194e-05
 8.70878194e-05
 8.70878194e-05
 8.70878194e-05
 8.70878194e-05
 8.70878194e-05
 8.70878194e-05
 8.70878194e-05
 8.70878194e-05
 8.70878194e-05
 8.70878194e-05
 8.70878194e-05
 8.70878194e-05
 8.70878194e-05
 8.70878194e-05
 8.70878194e-05
 8.70878194e-05
 8.70878194e-05
 8.70878194e-05
 8.70878194e-05
 8.70878194e-05
 8.70878194e-05
 8.70878194e-05
 8.70878194e-05
 8.70878194e-05
 8.70878194e-05
 8.70878194e-05
 4.71535271e-04
 1.52056303e-02
 1.52056303e-02
 1.52056303e-02
 1.52056303e-02
 1.52056303e-02
 1.17406350e-02
 1.17406350e-02
 1.17406350e-02
 1.17406350e-02
 1.17406350e-02
 1.17406350e-02
 9.36466692e-03
 9.36466692e-03
 9.36466692e-03
 9.36466692e-03
 9.36466692e-03
 9.36466692e-03
 9.36466692e-03
 9.36466692e-03
 9.36466692e-03
 9.36466692e-03
 9.36466692e-03
 9.36466692e-03
 9.36466692e-03
 9.36466692e-03
 9.36466692e-03
 9.36466692e-03
 7.20471038e-03
 7.20471038e-03
 7.20471038e-03
 7.20471038e-03
 7.20471038e-03
 7.20471038e-03
 7.20471038e-03
 7.20471038e-03
 7.20471038e-03
 7.20471038e-03
 7.20471038e-03
 5.48316302e-03
 5.48316302e-03
 4.09119094e-03
 4.09119094e-03
 4.09119094e-03
 4.09119094e-03
 4.09119094e-03
 4.09119094e-03
 2.86869694e-03
 2.86869694e-03
 2.86869694e-03
 2.86869694e-03
 2.86869694e-03
 2.86869694e-03
 2.44493634e-03
 2.44493634e-03
 1.90073115e-03
 1.90073115e-03
 1.45075098e-03
 1.45075098e-03
)
)
1
(
101
(
 1.04574073e-04
 1.04574073e-04
 1.04574073e-04
 1.04574073e-04
 1.04574073e-04
 1.04574073e-04
 1.04574073e-04
 1.04574073e-04
 1.04574073e-04
 1.04574073e-04
 1.04574073e-04
 1.04574073e-04
 1.04574073e-04
 1.04574073e-04
 1.04574073e-04
 1.04574073e-04
 1.04574073e-04
 1.04574073e-04
 1.04574073e-04
 1.04574073e-04
 1.04574073e-04
 1.04574073e-04
 1.04574073e-04
 1.04574073e-04
 1.04574073e-04
 1.04574073e-04
 1.04574073e-04
 1.04574073e-04
 1.04574073e-04
 1.04574073e-04
 1.04574073e-04
 1.04574073e-04
 1.04574073e-04
 4.71535271e-04
 4.71535271e-04
 4.71535271e-04
 4.71535271e-04
 4.71535271e-04
 4.71535271e-04
 4.71535271e-04
 4.71535271e-04
 4.71535271e-04
 4.71535271e-04
 1.52056303e-02
 1.52056303e-02
 1.52056303e-02
 1.52056303e-02
 1.52056303e-02
 1.52056303e-02
 1.17406350e-02
 1.17406350e-02
 1.17406350e-02
 1.17406350e-02
 1.17406350e-02
 1.17406350e-02
 1.17406350e-02
 9.36466692e-03
 9.36466692e-03
 9.36466692e-03
 9.36466692e-03
 9.36466692e-03
 9.36466692e-03
 9.36466692e-03
 9.36466692e-03
 9.36466692e-03
 9.36466692e-03
 9.36466692e-03
 9.36466692e-03
 9.36466692e-03
 9.36466692e-03
 9.36466692e-03
 7.20471038e-03
 7.20471038e-03
 7.20471038e-03
 7.20471038e-03
 7.20471038e-03
 7.20471038e-03
 7.20471038e-03
 7.20471038e-03
 7.20471038e-03
 7.20471038e-03
 7.20471038e-03
 5.48316302e-03
 5.48316302e-03
 4.09119094e-03
 4.09119094e-03
 4.09119094e-03
 4.09119094e-03
 4.09119094e-03
 4.09119094e-03
 4.09119094e-03
 2.86869694e-03
 2.86869694e-03
 2.86869694e-03
 2.86869694e-03
 2.86869694e-03
 2.44493634e-03
 2.44493634e-03
 1.90073115e-03
 1.90073115e-03
 1.45075098e-03
)
)
1
(
101
(
 1.36910117e-04
 1.36910117e-04
 1.36910117e-04
 1.36910117e-04
 1.36910117e-04
 1.36910117e-04
 1.36910117e-04
 1.36910117e-04
 1.36910117e-04
 1.36910117e-04
 1.36910117e-04
 1.36910117e-04
 1.36910117e-04
 1.36910117e-04
 1.36910117e-04
 1.36910117e-04
 1.36910117e-04
 1.36910117e-04
 1.36910117e-04
 1.36910117e-04
 1.36910117e-04
 1.36910117e-04
 1.36910117e-04
 1.36910117e-04
 1.36910117e-04
 1.36910117e-04
 4.71535271e-04
 4.71535271e-04
 4.71535271e-04
 4.71535271e-04
 4.71535271e-04
 4.71535271e-04
 4.71535271e-04
 4.71535271e-04
 4.71535271e-04
 4.71535271e-04
 4.71535271e-04
 4.71535271e-04
 4.71535271e-04
 4.71535271e-04
 4.71535271e-04
 4.71535271e-04
 4.71535271e-04
 1.52056303e-02
 1.52056303e-02
 1.52056303e-02
 1.52056303e-02
 1.52056303e-02
 1.52056303e-02
 1.52056303e-02
 1.17406350e-02
 1.17406350e-02
 1.17406350e-02
 1.17406350e-02
 1.17406350e-02
 1.17406350e-02
 1.17406350e-02
 9.36466692e-03
 9.36466692e-03
 9.36466692e-03
 9.36466692e-03
 9.36466692e-03
 9.36466692e-03
 9.36466692e-03
 9.36466692e-03
 9.36466692e-03
 9.36466692e-03
 9.36466692e-03
 9.36466692e-03
 9.36466692e-03
 9.36466692e-03
 9.36466692e-03
 7.20471038e-03
 7.20471038e-03
 7.20471038e-03
 7.20471038e-03
 7.20471038e-03
 7.20471038e-03
 7.20471038e-03
 7.20471038e-03
 7.20471038e-03
 7.20471038e-03
 7.20471038e-03
 5.48316302e-03
 5.48316302e-03
 5.48316302e-03
 4.09119094e-03
 4.09119094e-03
 4.09119094e-03
 4.09119094e-03
 4.09119094e-03
 4.09119094e-03
 3.63784054e-03
 2.86869694e-03
 2.86869694e-03
 2.86869694e-03
 2.71416927e-03
 2.71416927e-03
 2.71416927e-03
 1.90073115e-03
 1.90073115e-03
)
)
1
(
101
(
 1.41643358e-04
 1.41643358e-04
 1.41643358e-04
 1.41643358e-04
 1.41643358e-04
 1.41643358e-04
 1.41643358e-04
 1.41643358e-04
 1.41643358e-04
 1.41643358e-04
 1.41643358e-04
 1.41643358e-04
 1.41643358e-04
 1.41643358e-04
 1.41643358e-04
 1.41643358e-04
 1.41643358e-04
 1.41643358e-04
 1.41643358e-04
 4.71535271e-04
 4.71535271e-04
 4.71535271e-04
 4.71535271e-04
 4.71535271e-04
 4.71535271e-04
 4.71535271e-04
 4.71535271e-04
 4.71535271e-04
 4.71535271e-04
 4.71535271e-04
 4.71535271e-04
 4.71535271e-04
 4.71535271e-04
 4.71535271e-04
 4.71535271e-04
 4.71535271e-04
 4.71535271e-04
 4.71535271e-04
 4.71535271e-04
 4.71535271e-04
 4.71535271e-04
 4.71535271e-04
 1.52056303e-02
 1.52056303e-02
 1.52056303e-02
 1.52056303e-02
 1.52056303e-02
 1.52056303e-02
 1.52056303e-02
 1.52056303e-02
 1.52056303e-02
 1.17406350e-02
 1.17406350e-02
 1.17406350e-02
 1.17406350e-02
 1.17406350e-02
 1.17406350e-02
 1.17406350e-02
 1.17406350e-02
 9.36466692e-03
 9.36466692e-03
 9.36466692e-03
 9.36466692e-03
 9.36466692e-03
 9.36466692e-03
 9.36466692e-03
 9.36466692e-03
 9.36466692e-03
 9.36466692e-03
 9.36466692e-03
 9.36466692e-03
 9.36466692e-03
 9.36466692e-03
 7.20471038e-03
 7.20471038e-03
 7.20471038e-03
 7.20471038e-03
 7.20471038e-03
 7.20471038e-03
 7.20471038e-03
 7.20471038e-03
 7.20471038e-03
 7.20471038e-03
 7.20471038e-03
 5.48316302e-03
 5.48316302e-03
 5.48316302e-03
 4.09119094e-03
 4.09119094e-03
 4.09119094e-03
 4.09119094e-03
 4.09119094e-03
 4.09119094e-03
 3.63784054e-03
 3.63784054e-03
 3.26287219e-03
 3.26287219e-03
 2.71416927e-03
 2.71416927e-03
 2.71416927e-03
 2.71416927e-03
)
)
1
(
101
(
 1.77034037e-04
 1.77034037e-04
 1.77034037e-04
 1.77034037e-04
 1.77034037e-04
 1.77034037e-04
 1.77034037e-04
 1.77034037e-04
 1.77034037e-04
 1.77034037e-04
 1.77034037e-04
 1.77034037e-04
 1.77034037e-04
 1.77034037e-04
 4.71535271e-04
 4.71535271e-04
 4.71535271e-04
 4.71535271e-04
 4.71535271e-04
 4.71535271e-04
 4.71535271e-04
 4.71535271e-04
 4.71535271e-04
 4.71535271e-04
 4.71535271e-04
 4.71535271e-04
 4.71535271e-04
 4.71535271e-04
 4.71535271e-04
 4.71535271e-04
 4.71535271e-04
 4.71535271e-04
 4.71535271e-04
 4.71535271e-04
 4.71535271e-04
 4.71535271e-04
 4.71535271e-04
 4.71535271e-04
 4.71535271e-04
 4.71535271e-04
 4.71535271e-04
 4.71535271e-04
 1.52056303e-02
 1.52056303e-02
 1.52056303e-02
 1.52056303e-02
 1.52056303e-02
 1.52056303e-02
 1.52056303e-02
 1.52056303e-02
 1.52056303e-02
 1.52056303e-02
 1.17406350e-02
 1.17406350e-02
 1.17406350e-02
 1.17406350e-02
 1.17406350e-02
 1.17406350e-02
 1.17406350e-02
 1.17406350e-02
 9.36466692e-03
 9.36466692e-03
 9.36466692e-03
 9.36466692e-03
 9.36466692e-03
 9.36466692e-03
 9.36466692e-03
 9.36466692e-03
 9.36466692e-03
 9.36466692e-03
 9.36466692e-03
 9.36466692e-03
 9.36466692e-03
 9.36466692e-03
 9.36466692e-03
 7.20471038e-03
 7.20471038e-03
 7.20471038e-03
 7.20471038e-03
 7.20471038e-03
 7.20471038e-03
 7.20471038e-03
 7.20471038e-03
 7.20471038e-03
 7.20471038e-03
 5.48316302e-03
 5.48316302e-03
 5.48316302e-03
 5.48316302e-03
 4.09119094e-03
 4.09119094e-03
 4.09119094e-03
 4.09119094e-03
 4.09119094e-03
 3.63784054e-03
 3.63784054e-03
 3.26287219e-03
 3.26287219e-03
 2.71416927e-03
 2.71416927e-03
 2.71416927e-03
)
)
1
(
101
(
 1.89025611e-04
 1.89025611e-04
 1.89025611e-04
 1.89025611e-04
 1.89025611e-04
 1.89025611e-04
 1.89025611e-04
 1.89025611e-04
 1.89025611e-04
 4.71535271e-04
 4.71535271e-04
 4.71535271e-04
 4.71535271e-04
 4.71535271e-04
 4.71535271e-04
 4.71535271e-04
 4.71535271e-04
 4.71535271e-04
 4.71535271e-04
 4.71535271e-04
 4.71535271e-04
 4.71535271e-04
 4.71535271e-04
 4.71535271e-04
 4.71535271e-04
 4.71535271e-04
 4.71535271e-04
 4.71535271e-04
 4.71535271e-04
 4.71535271e-04
 4.71535271e-04
 4.71535271e-04
 4.71535271e-04
 4.71535271e-04
 4.71535271e-04
 4.71535271e-04
 4.71535271e-04
 4.71535271e-04
 4.71535271e-04
 4.71535271e-04
 4.71535271e-04
 4.71535271e-04
 1.52056303e-02
 1.52056303e-02
 1.52056303e-02
 1.52056303e-02
 1.52056303e-02
 1.52056303e-02
 1.52056303e-02
 1.52056303e-02
 1.52056303e-02
 1.52056303e-02
 1.52056303e-02
 1.52056303e-02
 1.17406350e-02
 1.17406350e-02
 1.17406350e-02
 1.17406350e-02
 1.17406350e-02
 1.17406350e-02
 1.17406350e-02
 1.17406350e-02
 9.36466692e-03
 9.36466692e-03
 9.36466692e-03
 9.36466692e-03
 9.36466692e-03
 9.36466692e-03
 9.36466692e-03
 9.36466692e-03
 9.36466692e-03
 9.36466692e-03
 9.36466692e-03
 9.36466692e-03
 9.36466692e-03
 9.36466692e-03
 7.20471038e-03
 7.20471038e-03
 7.20471038e-03
 7.20471038e-03
 7.20471038e-03
 7.20471038e-03
 7.20471038e-03
 7.20471038e-03
 7.20471038e-03
 7.20471038e-03
 5.48316302e-03
 5.48316302e-03
 5.48316302e-03
 5.48316302e-03
 4.82724123e-03
 4.09119094e-03
 4.09119094e-03
 4.09119094e-03
 4.09119094e-03
 3.63784054e-03
 3.63784054e-03
 3.26287219e-03
 3.26287219e-03
 2.71416927e-03
 2.71416927e-03
)
)
1
(
101
(
 1.97211290e-04
 1.97211290e-04
 1.97211290e-04
 1.97211290e-04
 1.97211290e-04
 1.97211290e-04
 4.71535271e-04
 4.71535271e-04
 4.71535271e-04
 4.71535271e-04
 4.71535271e-04
 4.71535271e-04
 4.71535271e-04
 4.71535271e-04
 4.71535271e-04
 4.71535271e-04
 4.71535271e-04
 4.71535271e-04
 4.71535271e-04
 4.71535271e-04
 4.71535271e-04
 4.71535271e-04
 4.71535271e-04
 4.71535271e-04
 4.71535271e-04
 4.71535271e-04
 4.71535271e-04
 4.71535271e-04
 4.71535271e-04
 4.71535271e-04
 4.71535271e-04
 4.71535271e-04
 4.71535271e-04
 4.71535271e-04
 4.71535271e-04
 4.71535271e-04
 4.71535271e-04
 4.71535271e-04
 4.71535271e-04
 4.71535271e-04
 4.71535271e-04
 4.71535271e-04
 1.52056303e-02
 1.52056303e-02
 1.52056303e-02
 1.52056303e-02
 1.52056303e-02
 1.52056303e-02
 1.52056303e-02
 1.52056303e-02
 1.52056303e-02
 1.52056303e-02
 1.52056303e-02
 1.52056303e-02
 1.52056303e-02
 1.17406350e-02
 1.17406350e-02
 1.17406350e-02
 1.17406350e-02
 1.17406350e-02
 1.17406350e-02
 1.17406350e-02
 1.17406350e-02
 9.36466692e-03
 9.36466692e-03
 9.36466692e-03
 9.36466692e-03
 9.36466692e-03
 9.36466692e-03
 9.36466692e-03
 9.36466692e-03
 9.36466692e-03
 9.36466692e-03
 9.36466692e-03
 9.36466692e-03
 9.36466692e-03
 9.36466692e-03
 7.20471038e-03
 7.20471038e-03
 7.20471038e-03
 7.20471038e-03
 7.20471038e-03
 7.20471038e-03
 7.20471038e-03
 7.20471038e-03
 7.20471038e-03
 7.20471038e-03
 5.48316302e-03
 5.48316302e-03
 5.48316302e-03
 5.48316302e-03
 4.82724123e-03
 4.82724123e-03
 4.53473590e-03
 4.53473590e-03
 4.53473590e-03
 3.63784054e-03
 3.63784054e-03
 3.26287219e-03
 3.26287219e-03
 2.71416927e-03
)
)
1
(
101
(
 2.38137996e-04
 2.38137996e-04
 2.38137996e-04
 4.71535271e-04
 4.71535271e-04
 4.71535271e-04
 4.71535271e-04
 4.71535271e-04
 4.71535271e-04
 4.71535271e-04
 4.71535271e-04
 4.71535271e-04
 4.71535271e-04
 4.71535271e-04
 4.71535271e-04
 4.71535271e-04
 4.71535271e-04
 4.71535271e-04
 4.71535271e-04
 4.71535271e-04
 4.71535271e-04
 4.71535271e-04
 4.71535271e-04
 4.71535271e-04
 4.71535271e-04
 4.71535271e-04
 4.71535271e-04
 4.71535271e-04
 4.71535271e-04
 4.71535271e-04
 4.71535271e-04
 4.71535271e-04
 4.71535271e-04
 4.71535271e-04
 4.71535271e-04
 4.71535271e-04
 4.71535271e-04
 4.71535271e-04
 4.71535271e-04
 4.71535271e-04
 4.71535271e-04
 1.89987375e-02
 1.52056303e-02
 1.52056303e-02
 1.52056303e-02
 1.52056303e-02
 1.52056303e-02
 1.52056303e-02
 1.52056303e-02
 1.52056303e-02
 1.52056303e-02
 1.52056303e-02
 1.52056303e-02
 1.52056303e-02
 1.52056303e-02
 1.52056303e-02
 1.17406350e-02
 1.17406350e-02
 1.17406350e-02
 1.17406350e-02
 1.17406350e-02
 1.17406350e-02
 1.17406350e-02
 1.17406350e-02
 1.17406350e-02
 9.36466692e-03
 9.36466692e-03
 9.36466692e-03
 9.36466692e-03
 9.36466692e-03
 9.36466692e-03
 9.36466692e-03
 9.36466692e-03
 9.36466692e-03
 9.36466692e-03
 9.36466692e-03
 9.36466692e-03
 9.36466692e-03
 7.20471038e-03
 7.20471038e-03
 7.20471038e-03
 7.20471038e-03
 7.20471038e-03
 7.20471038e-03
 7.20471038e-03
 7.20471038e-03
 7.20471038e-03
 7.20471038e-03
 5.48316302e-03
 5.48316302e-03
 5.48316302e-03
 5.48316302e-03
 4.82724123e-03
 4.82724123e-03
 4.53473590e-03
 4.53473590e-03
 4.53473590e-03
 4.53473590e-03
 3.63784054e-03
 3.26287219e-03
 3.26287219e-03
)
)
1
(
101
(
 2.07879826e-04
 2.07879826e-04
 4.71535271e-04
 4.71535271e-04
 4.71535271e-04
 4.71535271e-04
 4.71535271e-04
 4.71535271e-04
 4.71535271e-04
 4.71535271e-04
 4.71535271e-04
 4.71535271e-04
 4.71535271e-04
 4.71535271e-04
 4.71535271e-04
 4.71535271e-04
 4.71535271e-04
 4.71535271e-04
 4.71535271e-04
 4.71535271e-04
 4.71535271e-04
 4.71535271e-04
 4.71535271e-04
 4.71535271e-04
 4.71535271e-04
 4.71535271e-04
 4.71535271e-04
 4.71535271e-04
 4.71535271e-04
 4.71535271e-04
 4.71535271e-04
 4.71535271e-04
 4.71535271e-04
 4.71535271e-04
 4.71535271e-04
 4.71535271e-04
 4.71535271e-04
 4.71535271e-04
 4.71535271e-04
 4.71535271e-04
 4.71535271e-04
 1.89987375e-02
 1.89987375e-02
 1.52056303e-02
 1.52056303e-02
 1.52056303e-02
 1.52056303e-02
 1.52056303e-02
 1.52056303e-02
 1.52056303e-02
 1.52056303e-02
 1.52056303e-02
 1.52056303e-02
 1.52056303e-02
 1.52056303e-02
 1.52056303e-02
 1.52056303e-02
 1.17406350e-02
 1.17406350e-02
 1.17406350e-02
 1.17406350e-02
 1.17406350e-02
 1.17406350e-02
 1.17406350e-02
 1.17406350e-02
 1.17406350e-02
 9.36466692e-03
 9.36466692e-03
 9.36466692e-03
 9.36466692e-03
 9.36466692e-03
 9.36466692e-03
 9.36466692e-03
 9.36466692e-03
 9.36466692e-03
 9.36466692e-03
 9.36466692e-03
 9.36466692e-03
 9.36466692e-03
 9.36466692e-03
 7.20471038e-03
 7.20471038e-03
 7.20471038e-03
 7.20471038e-03
 7.20471038e-03
 7.20471038e-03
 7.20471038e-03
 7.20471038e-03
 6.27203478e-03
 5.48316302e-03
 5.48316302e-03
 5.48316302e-03
 5.72165671e-03
 5.72165671e-03
 5.72165671e-03
 4.53473590e-03
 4.53473590e-03
 4.53473590e-03
 4.53473590e-03
 4.53473590e-03
 3.26287219e-03
)
)
1
(
101
(
 4.00613293e-05
 4.71535271e-04
 4.71535271e-04
 4.71535271e-04
 4.71535271e-04
 4.71535271e-04
 4.71535271e-04
 4.71535271e-04
 4.71535271e-04
 4.71535271e-04
 4.71535271e-04
 4.71535271e-04
 4.71535271e-04
 4.71535271e-04
 4.71535271e-04
 4.71535271e-04
 4.71535271e-04
 4.71535271e-04
 4.71535271e-04
 4.71535271e-04
 4.71535271e-04
 4.71535271e-04
 4.71535271e-04
 4.71535271e-04
 4.71535271e-04
 4.71535271e-04
 4.71535271e-04
 4.71535271e-04
 4.71535271e-04
 4.71535271e-04
 4.71535271e-04
 4.71535271e-04
 4.71535271e-04
 4.71535271e-04
 4.71535271e-04
 4.71535271e-04
 4.71535271e-04
 4.71535271e-04
 4.71535271e-04
 4.71535271e-04
 1.89987375e-02
 1.89987375e-02
 1.89987375e-02
 1.89987375e-02
 1.52056303e-02
 1.52056303e-02
 1.52056303e-02
 1.52056303e-02
 1.52056303e-02
 1.52056303e-02
 1.52056303e-02
 1.52056303e-02
 1.52056303e-02
 1.52056303e-02
 1.52056303e-02
 1.52056303e-02
 1.52056303e-02
 1.52056303e-02
 1.17406350e-02
 1.17406350e-02
 1.17406350e-02
 1.17406350e-02
 1.17406350e-02
 1.17406350e-02
 1.17406350e-02
 1.17406350e-02
 1.17406350e-02
 1.17406350e-02
 9.36466692e-03
 9.36466692e-03
 9.36466692e-03
 9.36466692e-03
 9.36466692e-03
 9.36466692e-03
 9.36466692e-03
 9.36466692e-03
 9.36466692e-03
 9.36466692e-03
 9.36466692e-03
 9.36466692e-03
 9.36466692e-03
 7.60910208e-03
 7.20471038e-03
 7.20471038e-03
 7.20471038e-03
 7.20471038e-03
 7.20471038e-03
 7.20471038e-03
 7.20471038e-03
 6.27203478e-03
 6.27203478e-03
 5.82053292e-03
 5.82053292e-03
 5.72165671e-03
 5.72165671e-03
 5.72165671e-03
 5.72165671e-03
 4.53473590e-03
 4.53473590e-03
 4.53473590e-03
 4.53473590e-03
)
)
1
(
101
(
 4.00613293e-05
 2.87650591e-04
 2.87650591e-04
 2.87650591e-04
 2.87650591e-04
 2.87650591e-04
 2.87650591e-04
 2.87650591e-04
 2.87650591e-04
 2.87650591e-04
 2.87650591e-04
 2.87650591e-04
 2.87650591e-04
 2.87650591e-04
 2.87650591e-04
 2.87650591e-04
 2.87650591e-04
 2.87650591e-04
 2.87650591e-04
 2.87650591e-04
 2.87650591e-04
 2.87650591e-04
 2.87650591e-04
 2.87650591e-04
 2.87650591e-04
 2.87650591e-04
 2.87650591e-04
 2.87650591e-04
 2.87650591e-04
 2.87650591e-04
 2.87650591e-04
 2.87650591e-04
 2.87650591e-04
 2.87650591e-04
 2.87650591e-04
 2.87650591e-04
 2.87650591e-04
 2.87650591e-04
 2.87650591e-04
 2.87650591e-04
 1.89987375e-02
 1.89987375e-02
 1.89987375e-02
 1.89987375e-02
 1.89987375e-02
 1.52056303e-02
 1.52056303e-02
 1.52056303e-02
 1.52056303e-02
 1.52056303e-02
 1.52056303e-02
 1.52056303e-02
 1.52056303e-02
 1.52056303e-02
 1.52056303e-02
 1.52056303e-02
 1.52056303e-02
 1.52056303e-02
 1.52056303e-02
 1.17406350e-02
 1.17406350e-02
 1.17406350e-02
 1.17406350e-02
 1.17406350e-02
 1.17406350e-02
 1.17406350e-02
 1.17406350e-02
 1.17406350e-02
 1.17406350e-02
 9.36466692e-03
 9.36466692e-03
 9.36466692e-03
 9.36466692e-03
 9.36466692e-03
 9.36466692e-03
 9.36466692e-03
 9.36466692e-03
 9.36466692e-03
 9.36466692e-03
 9.36466692e-03
 9.36466692e-03
 9.36466692e-03
 7.60910208e-03
 7.60910208e-03
 7.20471038e-03
 7.20471038e-03
 7.20471038e-03
 7.20471038e-03
 7.20471038e-03
 6.27203478e-03
 6.27203478e-03
 6.27203478e-03
 5.82053292e-03
 5.82053292e-03
 5.72165671e-03
 5.72165671e-03
 5.72165671e-03
 5.72165671e-03
 5.72165671e-03
 4.53473590e-03
 4.53473590e-03
)
)
1
(
101
(
 3.34597160e-04
 3.34597160e-04
 3.34597160e-04
 3.34597160e-04
 3.34597160e-04
 3.34597160e-04
 3.34597160e-04
 3.34597160e-04
 3.34597160e-04
 3.34597160e-04
 3.34597160e-04
 3.34597160e-04
 3.34597160e-04
 3.34597160e-04
 3.34597160e-04
 3.34597160e-04
 3.34597160e-04
 3.34597160e-04
 3.34597160e-04
 3.34597160e-04
 3.34597160e-04
 3.34597160e-04
 3.34597160e-04
 3.34597160e-04
 3.34597160e-04
 3.34597160e-04
 3.34597160e-04
 3.34597160e-04
 3.34597160e-04
 3.34597160e-04
 3.34597160e-04
 3.34597160e-04
 3.34597160e-04
 3.34597160e-04
 3.34597160e-04
 3.34597160e-04
 3.34597160e-04
 3.34597160e-04
 3.34597160e-04
 3.34597160e-04
 1.89987375e-02
 1.89987375e-02
 1.89987375e-02
 1.89987375e-02
 1.89987375e-02
 1.89987375e-02
 1.52056303e-02
 1.52056303e-02
 1.52056303e-02
 1.52056303e-02
 1.52056303e-02
 1.52056303e-02
 1.52056303e-02
 1.52056303e-02
 1.52056303e-02
 1.52056303e-02
 1.52056303e-02
 1.52056303e-02
 1.52056303e-02
 1.52056303e-02
 1.52056303e-02
 1.17406350e-02
 1.17406350e-02
 1.17406350e-02
 1.17406350e-02
 1.17406350e-02
 1.17406350e-02
 1.17406350e-02
 1.17406350e-02
 1.17406350e-02
 1.17406350e-02
 9.36466692e-03
 9.36466692e-03
 9.36466692e-03
 9.36466692e-03
 9.36466692e-03
 9.36466692e-03
 9.36466692e-03
 9.36466692e-03
 9.36466692e-03
 9.36466692e-03
 9.36466692e-03
 9.36466692e-03
 7.60910208e-03
 7.60910208e-03
 7.60910208e-03
 7.20471038e-03
 7.20471038e-03
 7.20471038e-03
 7.20471038e-03
 6.27203478e-03
 6.27203478e-03
 6.27203478e-03
 5.82053292e-03
 5.82053292e-03
 5.72165671e-03
 5.72165671e-03
 5.72165671e-03
 5.72165671e-03
 5.72165671e-03
 5.72165671e-03
)
)
1
(
101
(
 3.83015091e-04
 3.83015091e-04
 3.83015091e-04
 3.83015091e-04
 3.83015091e-04
 3.83015091e-04
 3.83015091e-04
 3.83015091e-04
 3.83015091e-04
 3.83015091e-04
 3.83015091e-04
 3.83015091e-04
 3.83015091e-04
 3.83015091e-04
 3.83015091e-04
 3.83015091e-04
 3.83015091e-04
 3.83015091e-04
 3.83015091e-04
 3.83015091e-04
 3.83015091e-04
 3.83015091e-04
 3.83015091e-04
 3.83015091e-04
 3.83015091e-04
 3.83015091e-04
 3.83015091e-04
 3.83015091e-04
 3.83015091e-04
 3.83015091e-04
 3.83015091e-04
 3.83015091e-04
 3.83015091e-04
 3.83015091e-04
 3.83015091e-04
 3.83015091e-04
 3.83015091e-04
 3.83015091e-04
 3.83015091e-04
 1.89987375e-02
 1.89987375e-02
 1.89987375e-02
 1.89987375e-02
 1.89987375e-02
 1.89987375e-02
 1.89987375e-02
 1.89987375e-02
 1.89987375e-02
 1.52056303e-02
 1.52056303e-02
 1.52056303e-02
 1.52056303e-02
 1.52056303e-02
 1.52056303e-02
 1.52056303e-02
 1.52056303e-02
 1.52056303e-02
 1.52056303e-02
 1.52056303e-02
 1.52056303e-02
 1.52056303e-02
 1.52056303e-02
 1.17406350e-02
 1.17406350e-02
 1.17406350e-02
 1.17406350e-02
 1.17406350e-02
 1.17406350e-02
 1.17406350e-02
 1.17406350e-02
 1.17406350e-02
 1.17406350e-02
 9.36466692e-03
 9.36466692e-03
 9.36466692e-03
 9.36466692e-03
 9.36466692e-03
 9.36466692e-03
 9.36466692e-03
 9.36466692e-03
 9.36466692e-03
 9.36466692e-03
 9.36466692e-03
 9.36466692e-03
 7.60910208e-03
 7.60910208e-03
 7.60910208e-03
 7.60910208e-03
 7.34838365e-03
 7.34838365e-03
 7.34838365e-03
 6.27203478e-03
 6.27203478e-03
 6.27203478e-03
 5.82053292e-03
 5.82053292e-03
 5.72165671e-03
 5.72165671e-03
 5.72165671e-03