/*--------------------------------*- C++ -*----------------------------------*\
| =========                 |                                                 |
| \\      /  F ield        | OpenFOAM: The Open Source CFD Toolbox           |
|  \\    /   O peration    | Version:  7                                     |
|   \\  /    A nd          | Web:      http://www.OpenFOAM.com               |
|    \\/     M anipulation |                                                 |
\*---------------------------------------------------------------------------*/

FoamFile
{
    version     2.0;
    format      ascii;
    class       dictionary;
    object      Y_H2_table;
}

Y_H2_table
2
(
101
(
1
(
101
(
 5.25012944e-07
 5.25012944e-07
 5.25012944e-07
 5.25012944e-07
 5.25012944e-07
 5.25012944e-07
 5.25012944e-07
 5.25012944e-07
 5.25012944e-07
 5.25012944e-07
 5.25012944e-07
 5.25012944e-07
 5.25012944e-07
 5.25012944e-07
 5.25012944e-07
 5.25012944e-07
 5.25012944e-07
 5.25012944e-07
 5.25012944e-07
 5.25012944e-07
 5.25012944e-07
 5.25012944e-07
 5.25012944e-07
 5.25012944e-07
 5.25012944e-07
 5.25012944e-07
 5.25012944e-07
 5.25012944e-07
 5.25012944e-07
 5.25012944e-07
 5.25012944e-07
 5.25012944e-07
 5.25012944e-07
 5.25012944e-07
 5.25012944e-07
 5.25012944e-07
 5.25012944e-07
 5.25012944e-07
 5.25012944e-07
 5.25012944e-07
 5.25012944e-07
 5.25012944e-07
 5.25012944e-07
 5.25012944e-07
 5.25012944e-07
 1.49798115e-03
 1.49798115e-03
 1.10569319e-03
 1.10569319e-03
 1.10569319e-03
 1.10569319e-03
 1.10569319e-03
 1.10569319e-03
 1.10569319e-03
 1.10569319e-03
 1.10569319e-03
 1.10569319e-03
 1.10569319e-03
 1.10569319e-03
 1.10569319e-03
 1.10569319e-03
 1.10569319e-03
 1.10569319e-03
 9.73203444e-04
 9.73203444e-04
 9.73203444e-04
 9.73203444e-04
 9.73203444e-04
 9.73203444e-04
 9.73203444e-04
 9.73203444e-04
 9.73203444e-04
 9.73203444e-04
 9.73203444e-04
 9.73203444e-04
 9.88252316e-04
 9.88252316e-04
 9.88252316e-04
 9.88252316e-04
 9.88252316e-04
 9.88252316e-04
 9.88252316e-04
 8.35481321e-04
 8.35481321e-04
 8.35481321e-04
 8.35481321e-04
 8.35481321e-04
 8.35481321e-04
 6.58347686e-04
 6.58347686e-04
 6.58347686e-04
 6.58347686e-04
 6.58347686e-04
 6.58347686e-04
 6.58347686e-04
 3.93794576e-04
 3.93794576e-04
 3.93794576e-04
 3.93794576e-04
 3.93794576e-04
 2.17209201e-05
)
)
1
(
101
(
 8.48962538e-06
 8.48962538e-06
 8.48962538e-06
 8.48962538e-06
 8.48962538e-06
 8.48962538e-06
 8.48962538e-06
 8.48962538e-06
 8.48962538e-06
 8.48962538e-06
 8.48962538e-06
 8.48962538e-06
 8.48962538e-06
 8.48962538e-06
 8.48962538e-06
 8.48962538e-06
 8.48962538e-06
 8.48962538e-06
 8.48962538e-06
 8.48962538e-06
 8.48962538e-06
 8.48962538e-06
 8.48962538e-06
 8.48962538e-06
 8.48962538e-06
 8.48962538e-06
 8.48962538e-06
 8.48962538e-06
 8.48962538e-06
 8.48962538e-06
 8.48962538e-06
 8.48962538e-06
 8.48962538e-06
 8.48962538e-06
 8.48962538e-06
 8.48962538e-06
 8.48962538e-06
 8.48962538e-06
 8.48962538e-06
 8.48962538e-06
 8.48962538e-06
 8.48962538e-06
 8.48962538e-06
 8.48962538e-06
 8.48962538e-06
 1.49798115e-03
 1.49798115e-03
 1.49798115e-03
 1.10569319e-03
 1.10569319e-03
 1.10569319e-03
 1.10569319e-03
 1.10569319e-03
 1.10569319e-03
 1.10569319e-03
 1.10569319e-03
 1.10569319e-03
 1.10569319e-03
 1.10569319e-03
 1.10569319e-03
 1.10569319e-03
 1.10569319e-03
 1.10569319e-03
 1.10569319e-03
 1.10569319e-03
 9.73203444e-04
 9.73203444e-04
 9.73203444e-04
 9.73203444e-04
 9.73203444e-04
 9.73203444e-04
 9.73203444e-04
 9.73203444e-04
 9.73203444e-04
 9.73203444e-04
 9.73203444e-04
 9.73203444e-04
 9.88252316e-04
 9.88252316e-04
 9.88252316e-04
 9.88252316e-04
 9.88252316e-04
 9.88252316e-04
 8.35481321e-04
 8.35481321e-04
 8.35481321e-04
 8.35481321e-04
 8.35481321e-04
 8.35481321e-04
 8.35481321e-04
 6.58347686e-04
 6.58347686e-04
 6.58347686e-04
 6.58347686e-04
 6.58347686e-04
 6.58347686e-04
 6.39315194e-04
 3.93794576e-04
 3.93794576e-04
 3.93794576e-04
 3.43738751e-04
)
)
1
(
101
(
 1.14839137e-05
 1.14839137e-05
 1.14839137e-05
 1.14839137e-05
 1.14839137e-05
 1.14839137e-05
 1.14839137e-05
 1.14839137e-05
 1.14839137e-05
 1.14839137e-05
 1.14839137e-05
 1.14839137e-05
 1.14839137e-05
 1.14839137e-05
 1.14839137e-05
 1.14839137e-05
 1.14839137e-05
 1.14839137e-05
 1.14839137e-05
 1.14839137e-05
 1.14839137e-05
 1.14839137e-05
 1.14839137e-05
 1.14839137e-05
 1.14839137e-05
 1.14839137e-05
 1.14839137e-05
 1.14839137e-05
 1.14839137e-05
 1.14839137e-05
 1.14839137e-05
 1.14839137e-05
 1.14839137e-05
 1.14839137e-05
 1.14839137e-05
 1.14839137e-05
 1.14839137e-05
 1.14839137e-05
 1.14839137e-05
 1.14839137e-05
 1.14839137e-05
 1.14839137e-05
 1.14839137e-05
 1.14839137e-05
 1.49798115e-03
 1.49798115e-03
 1.49798115e-03
 1.49798115e-03
 1.49798115e-03
 1.49798115e-03
 1.10569319e-03
 1.10569319e-03
 1.10569319e-03
 1.10569319e-03
 1.10569319e-03
 1.10569319e-03
 1.10569319e-03
 1.10569319e-03
 1.10569319e-03
 1.10569319e-03
 1.10569319e-03
 1.10569319e-03
 1.10569319e-03
 1.10569319e-03
 1.10569319e-03
 1.10569319e-03
 9.73203444e-04
 9.73203444e-04
 9.73203444e-04
 9.73203444e-04
 9.73203444e-04
 9.73203444e-04
 9.73203444e-04
 9.73203444e-04
 9.73203444e-04
 9.73203444e-04
 9.73203444e-04
 9.73203444e-04
 9.88252316e-04
 9.88252316e-04
 9.88252316e-04
 9.88252316e-04
 9.88252316e-04
 9.88252316e-04
 9.88252316e-04
 8.35481321e-04
 8.35481321e-04
 8.35481321e-04
 8.35481321e-04
 8.35481321e-04
 8.35481321e-04
 6.58347686e-04
 6.58347686e-04
 6.58347686e-04
 6.58347686e-04
 6.58347686e-04
 6.58347686e-04
 6.39315194e-04
 6.39315194e-04
 5.48212615e-04
 5.48212615e-04
)
)
1
(
101
(
 1.14829860e-05
 1.14829860e-05
 1.14829860e-05
 1.14829860e-05
 1.14829860e-05
 1.14829860e-05
 1.14829860e-05
 1.14829860e-05
 1.14829860e-05
 1.14829860e-05
 1.14829860e-05
 1.14829860e-05
 1.14829860e-05
 1.14829860e-05
 1.14829860e-05
 1.14829860e-05
 1.14829860e-05
 1.14829860e-05
 1.14829860e-05
 1.14829860e-05
 1.14829860e-05
 1.14829860e-05
 1.14829860e-05
 1.14829860e-05
 1.14829860e-05
 1.14829860e-05
 1.14829860e-05
 1.14829860e-05
 1.14829860e-05
 1.14829860e-05
 1.14829860e-05
 1.14829860e-05
 1.14829860e-05
 1.14829860e-05
 1.14829860e-05
 1.14829860e-05
 1.14829860e-05
 1.14829860e-05
 1.14829860e-05
 1.14829860e-05
 1.14829860e-05
 1.14829860e-05
 1.14829860e-05
 1.14829860e-05
 1.71396958e-03
 1.49798115e-03
 1.49798115e-03
 1.49798115e-03
 1.49798115e-03
 1.49798115e-03
 1.49798115e-03
 1.10569319e-03
 1.10569319e-03
 1.10569319e-03
 1.10569319e-03
 1.10569319e-03
 1.10569319e-03
 1.10569319e-03
 1.10569319e-03
 1.10569319e-03
 1.10569319e-03
 1.10569319e-03
 1.10569319e-03
 1.10569319e-03
 1.10569319e-03
 1.10569319e-03
 1.10569319e-03
 9.73203444e-04
 9.73203444e-04
 9.73203444e-04
 9.73203444e-04
 9.73203444e-04
 9.73203444e-04
 9.73203444e-04
 9.73203444e-04
 9.73203444e-04
 9.73203444e-04
 9.73203444e-04
 9.73203444e-04
 1.14802166e-03
 9.88252316e-04
 9.88252316e-04
 9.88252316e-04
 9.88252316e-04
 9.88252316e-04
 9.88252316e-04
 8.35481321e-04
 8.35481321e-04
 8.35481321e-04
 8.35481321e-04
 8.35481321e-04
 8.35481321e-04
 8.35481321e-04
 6.58347686e-04
 6.58347686e-04
 6.58347686e-04
 6.58347686e-04
 6.58347686e-04
 6.39315194e-04
 7.78044426e-04
 7.78044426e-04
)
)
1
(
101
(
 1.44185847e-05
 1.44185847e-05
 1.44185847e-05
 1.44185847e-05
 1.44185847e-05
 1.44185847e-05
 1.44185847e-05
 1.44185847e-05
 1.44185847e-05
 1.44185847e-05
 1.44185847e-05
 1.44185847e-05
 1.44185847e-05
 1.44185847e-05
 1.44185847e-05
 1.44185847e-05
 1.44185847e-05
 1.44185847e-05
 1.44185847e-05
 1.44185847e-05
 1.44185847e-05
 1.44185847e-05
 1.44185847e-05
 1.44185847e-05
 1.44185847e-05
 1.44185847e-05
 1.44185847e-05
 1.44185847e-05
 1.44185847e-05
 1.44185847e-05
 1.44185847e-05
 1.44185847e-05
 1.44185847e-05
 1.44185847e-05
 1.44185847e-05
 1.44185847e-05
 1.44185847e-05
 1.44185847e-05
 1.44185847e-05
 1.44185847e-05
 1.44185847e-05
 1.44185847e-05
 1.44185847e-05
 1.44185847e-05
 1.71396958e-03
 1.71396958e-03
 1.71396958e-03
 1.49798115e-03
 1.49798115e-03
 1.49798115e-03
 1.49798115e-03
 1.49798115e-03
 1.49798115e-03
 1.10569319e-03
 1.10569319e-03
 1.10569319e-03
 1.10569319e-03
 1.10569319e-03
 1.10569319e-03
 1.10569319e-03
 1.10569319e-03
 1.10569319e-03
 1.10569319e-03
 1.10569319e-03
 1.10569319e-03
 1.10569319e-03
 1.10569319e-03
 1.10569319e-03
 9.73203444e-04
 9.73203444e-04
 9.73203444e-04
 9.73203444e-04
 9.73203444e-04
 9.73203444e-04
 9.73203444e-04
 9.73203444e-04
 9.73203444e-04
 9.73203444e-04
 9.73203444e-04
 9.73203444e-04
 1.14802166e-03
 9.88252316e-04
 9.88252316e-04
 9.88252316e-04
 9.88252316e-04
 9.88252316e-04
 9.88252316e-04
 9.88252316e-04
 8.35481321e-04
 8.35481321e-04
 8.35481321e-04
 8.35481321e-04
 8.35481321e-04
 8.35481321e-04
 9.67276984e-04
 6.58347686e-04
 6.58347686e-04
 6.58347686e-04
 8.04802329e-04
 8.04802329e-04
 7.78044426e-04
)
)
1
(
101
(
 1.48545476e-05
 1.48545476e-05
 1.48545476e-05
 1.48545476e-05
 1.48545476e-05
 1.48545476e-05
 1.48545476e-05
 1.48545476e-05
 1.48545476e-05
 1.48545476e-05
 1.48545476e-05
 1.48545476e-05
 1.48545476e-05
 1.48545476e-05
 1.48545476e-05
 1.48545476e-05
 1.48545476e-05
 1.48545476e-05
 1.48545476e-05
 1.48545476e-05
 1.48545476e-05
 1.48545476e-05
 1.48545476e-05
 1.48545476e-05
 1.48545476e-05
 1.48545476e-05
 1.48545476e-05
 1.48545476e-05
 1.48545476e-05
 1.48545476e-05
 1.48545476e-05
 1.48545476e-05
 1.48545476e-05
 1.48545476e-05
 1.48545476e-05
 1.48545476e-05
 1.48545476e-05
 1.48545476e-05
 1.48545476e-05
 1.48545476e-05
 1.48545476e-05
 1.48545476e-05
 3.60603266e-05
 1.71396958e-03
 1.71396958e-03
 1.71396958e-03
 1.71396958e-03
 1.71396958e-03
 1.49798115e-03
 1.49798115e-03
 1.49798115e-03
 1.49798115e-03
 1.49798115e-03
 1.49798115e-03
 1.10569319e-03
 1.10569319e-03
 1.10569319e-03
 1.10569319e-03
 1.10569319e-03
 1.10569319e-03
 1.10569319e-03
 1.10569319e-03
 1.10569319e-03
 1.10569319e-03
 1.10569319e-03
 1.10569319e-03
 1.10569319e-03
 1.10569319e-03
 1.10569319e-03
 1.10569319e-03
 9.73203444e-04
 9.73203444e-04
 9.73203444e-04
 9.73203444e-04
 9.73203444e-04
 9.73203444e-04
 9.73203444e-04
 9.73203444e-04
 9.73203444e-04
 9.73203444e-04
 9.73203444e-04
 1.14802166e-03
 1.14802166e-03
 9.88252316e-04
 9.88252316e-04
 9.88252316e-04
 9.88252316e-04
 9.88252316e-04
 9.88252316e-04
 8.35481321e-04
 8.35481321e-04
 8.35481321e-04
 8.35481321e-04
 8.35481321e-04
 8.35481321e-04
 9.67276984e-04
 9.67276984e-04
 8.74366554e-04
 8.74366554e-04
 8.04802329e-04
 8.04802329e-04
)
)
1
(
101
(
 1.53526751e-05
 1.53526751e-05
 1.53526751e-05
 1.53526751e-05
 1.53526751e-05
 1.53526751e-05
 1.53526751e-05
 1.53526751e-05
 1.53526751e-05
 1.53526751e-05
 1.53526751e-05
 1.53526751e-05
 1.53526751e-05
 1.53526751e-05
 1.53526751e-05
 1.53526751e-05
 1.53526751e-05
 1.53526751e-05
 1.53526751e-05
 1.53526751e-05
 1.53526751e-05
 1.53526751e-05
 1.53526751e-05
 1.53526751e-05
 1.53526751e-05
 1.53526751e-05
 1.53526751e-05
 1.53526751e-05
 1.53526751e-05
 1.53526751e-05
 1.53526751e-05
 1.53526751e-05
 1.53526751e-05
 3.60603266e-05
 3.60603266e-05
 3.60603266e-05
 3.60603266e-05
 3.60603266e-05
 3.60603266e-05
 3.60603266e-05
 3.60603266e-05
 3.60603266e-05
 3.60603266e-05
 1.71396958e-03
 1.71396958e-03
 1.71396958e-03
 1.71396958e-03
 1.71396958e-03
 1.71396958e-03
 1.49798115e-03
 1.49798115e-03
 1.49798115e-03
 1.49798115e-03
 1.49798115e-03
 1.49798115e-03
 1.49798115e-03
 1.10569319e-03
 1.10569319e-03
 1.10569319e-03
 1.10569319e-03
 1.10569319e-03
 1.10569319e-03
 1.10569319e-03
 1.10569319e-03
 1.10569319e-03
 1.10569319e-03
 1.10569319e-03
 1.10569319e-03
 1.10569319e-03
 1.10569319e-03
 1.10569319e-03
 9.73203444e-04
 9.73203444e-04
 9.73203444e-04
 9.73203444e-04
 9.73203444e-04
 9.73203444e-04
 9.73203444e-04
 9.73203444e-04
 9.73203444e-04
 9.73203444e-04
 9.73203444e-04
 1.14802166e-03
 1.14802166e-03
 9.88252316e-04
 9.88252316e-04
 9.88252316e-04
 9.88252316e-04
 9.88252316e-04
 9.88252316e-04
 9.88252316e-04
 8.35481321e-04
 8.35481321e-04
 8.35481321e-04
 8.35481321e-04
 8.35481321e-04
 9.67276984e-04
 9.67276984e-04
 8.74366554e-04
 8.74366554e-04
 8.04802329e-04
)
)
1
(
101
(
 1.78205386e-05
 1.78205386e-05
 1.78205386e-05
 1.78205386e-05
 1.78205386e-05
 1.78205386e-05
 1.78205386e-05
 1.78205386e-05
 1.78205386e-05
 1.78205386e-05
 1.78205386e-05
 1.78205386e-05
 1.78205386e-05
 1.78205386e-05
 1.78205386e-05
 1.78205386e-05
 1.78205386e-05
 1.78205386e-05
 1.78205386e-05
 1.78205386e-05
 1.78205386e-05
 1.78205386e-05
 1.78205386e-05
 1.78205386e-05
 1.78205386e-05
 1.78205386e-05
 3.60603266e-05
 3.60603266e-05
 3.60603266e-05
 3.60603266e-05
 3.60603266e-05
 3.60603266e-05
 3.60603266e-05
 3.60603266e-05
 3.60603266e-05
 3.60603266e-05
 3.60603266e-05
 3.60603266e-05
 3.60603266e-05
 3.60603266e-05
 3.60603266e-05
 3.60603266e-05
 3.60603266e-05
 1.71396958e-03
 1.71396958e-03
 1.71396958e-03
 1.71396958e-03
 1.71396958e-03
 1.71396958e-03
 1.71396958e-03
 1.49798115e-03
 1.49798115e-03
 1.49798115e-03
 1.49798115e-03
 1.49798115e-03
 1.49798115e-03
 1.49798115e-03
 1.10569319e-03
 1.10569319e-03
 1.10569319e-03
 1.10569319e-03
 1.10569319e-03
 1.10569319e-03
 1.10569319e-03
 1.10569319e-03
 1.10569319e-03
 1.10569319e-03
 1.10569319e-03
 1.10569319e-03
 1.10569319e-03
 1.10569319e-03
 1.10569319e-03
 9.73203444e-04
 9.73203444e-04
 9.73203444e-04
 9.73203444e-04
 9.73203444e-04
 9.73203444e-04
 9.73203444e-04
 9.73203444e-04
 9.73203444e-04
 9.73203444e-04
 9.73203444e-04
 1.14802166e-03
 1.14802166e-03
 1.14802166e-03
 9.88252316e-04
 9.88252316e-04
 9.88252316e-04
 9.88252316e-04
 9.88252316e-04
 9.88252316e-04
 9.89077308e-04
 8.35481321e-04
 8.35481321e-04
 8.35481321e-04
 1.07551981e-03
 1.07551981e-03
 1.07551981e-03
 8.74366554e-04
 8.74366554e-04
)
)
1
(
101
(
 1.68158384e-05
 1.68158384e-05
 1.68158384e-05
 1.68158384e-05
 1.68158384e-05
 1.68158384e-05
 1.68158384e-05
 1.68158384e-05
 1.68158384e-05
 1.68158384e-05
 1.68158384e-05
 1.68158384e-05
 1.68158384e-05
 1.68158384e-05
 1.68158384e-05
 1.68158384e-05
 1.68158384e-05
 1.68158384e-05
 1.68158384e-05
 3.60603266e-05
 3.60603266e-05
 3.60603266e-05
 3.60603266e-05
 3.60603266e-05
 3.60603266e-05
 3.60603266e-05
 3.60603266e-05
 3.60603266e-05
 3.60603266e-05
 3.60603266e-05
 3.60603266e-05
 3.60603266e-05
 3.60603266e-05
 3.60603266e-05
 3.60603266e-05
 3.60603266e-05
 3.60603266e-05
 3.60603266e-05
 3.60603266e-05
 3.60603266e-05
 3.60603266e-05
 3.60603266e-05
 1.71396958e-03
 1.71396958e-03
 1.71396958e-03
 1.71396958e-03
 1.71396958e-03
 1.71396958e-03
 1.71396958e-03
 1.71396958e-03
 1.71396958e-03
 1.49798115e-03
 1.49798115e-03
 1.49798115e-03
 1.49798115e-03
 1.49798115e-03
 1.49798115e-03
 1.49798115e-03
 1.49798115e-03
 1.10569319e-03
 1.10569319e-03
 1.10569319e-03
 1.10569319e-03
 1.10569319e-03
 1.10569319e-03
 1.10569319e-03
 1.10569319e-03
 1.10569319e-03
 1.10569319e-03
 1.10569319e-03
 1.10569319e-03
 1.10569319e-03
 1.10569319e-03
 9.73203444e-04
 9.73203444e-04
 9.73203444e-04
 9.73203444e-04
 9.73203444e-04
 9.73203444e-04
 9.73203444e-04
 9.73203444e-04
 9.73203444e-04
 9.73203444e-04
 9.73203444e-04
 1.14802166e-03
 1.14802166e-03
 1.14802166e-03
 9.88252316e-04
 9.88252316e-04
 9.88252316e-04
 9.88252316e-04
 9.88252316e-04
 9.88252316e-04
 9.89077308e-04
 9.89077308e-04
 1.13963888e-03
 1.13963888e-03
 1.07551981e-03
 1.07551981e-03
 1.07551981e-03
 1.07551981e-03
)
)
1
(
101
(
 1.89166405e-05
 1.89166405e-05
 1.89166405e-05
 1.89166405e-05
 1.89166405e-05
 1.89166405e-05
 1.89166405e-05
 1.89166405e-05
 1.89166405e-05
 1.89166405e-05
 1.89166405e-05
 1.89166405e-05
 1.89166405e-05
 1.89166405e-05
 3.60603266e-05
 3.60603266e-05
 3.60603266e-05
 3.60603266e-05
 3.60603266e-05
 3.60603266e-05
 3.60603266e-05
 3.60603266e-05
 3.60603266e-05
 3.60603266e-05
 3.60603266e-05
 3.60603266e-05
 3.60603266e-05
 3.60603266e-05
 3.60603266e-05
 3.60603266e-05
 3.60603266e-05
 3.60603266e-05
 3.60603266e-05
 3.60603266e-05
 3.60603266e-05
 3.60603266e-05
 3.60603266e-05
 3.60603266e-05
 3.60603266e-05
 3.60603266e-05
 3.60603266e-05
 3.60603266e-05
 1.71396958e-03
 1.71396958e-03
 1.71396958e-03
 1.71396958e-03
 1.71396958e-03
 1.71396958e-03
 1.71396958e-03
 1.71396958e-03
 1.71396958e-03
 1.71396958e-03
 1.49798115e-03
 1.49798115e-03
 1.49798115e-03
 1.49798115e-03
 1.49798115e-03
 1.49798115e-03
 1.49798115e-03
 1.49798115e-03
 1.10569319e-03
 1.10569319e-03
 1.10569319e-03
 1.10569319e-03
 1.10569319e-03
 1.10569319e-03
 1.10569319e-03
 1.10569319e-03
 1.10569319e-03
 1.10569319e-03
 1.10569319e-03
 1.10569319e-03
 1.10569319e-03
 1.10569319e-03
 1.10569319e-03
 9.73203444e-04
 9.73203444e-04
 9.73203444e-04
 9.73203444e-04
 9.73203444e-04
 9.73203444e-04
 9.73203444e-04
 9.73203444e-04
 9.73203444e-04
 9.73203444e-04
 1.14802166e-03
 1.14802166e-03
 1.14802166e-03
 1.14802166e-03
 9.88252316e-04
 9.88252316e-04
 9.88252316e-04
 9.88252316e-04
 9.88252316e-04
 9.89077308e-04
 9.89077308e-04
 1.13963888e-03
 1.13963888e-03
 1.07551981e-03
 1.07551981e-03
 1.07551981e-03
)
)
1
(
101
(
 1.86972784e-05
 1.86972784e-05
 1.86972784e-05
 1.86972784e-05
 1.86972784e-05
 1.86972784e-05
 1.86972784e-05
 1.86972784e-05
 1.86972784e-05
 3.60603266e-05
 3.60603266e-05
 3.60603266e-05
 3.60603266e-05
 3.60603266e-05
 3.60603266e-05
 3.60603266e-05
 3.60603266e-05
 3.60603266e-05
 3.60603266e-05
 3.60603266e-05
 3.60603266e-05
 3.60603266e-05
 3.60603266e-05
 3.60603266e-05
 3.60603266e-05
 3.60603266e-05
 3.60603266e-05
 3.60603266e-05
 3.60603266e-05
 3.60603266e-05
 3.60603266e-05
 3.60603266e-05
 3.60603266e-05
 3.60603266e-05
 3.60603266e-05
 3.60603266e-05
 3.60603266e-05
 3.60603266e-05
 3.60603266e-05
 3.60603266e-05
 3.60603266e-05
 3.60603266e-05
 1.71396958e-03
 1.71396958e-03
 1.71396958e-03
 1.71396958e-03
 1.71396958e-03
 1.71396958e-03
 1.71396958e-03
 1.71396958e-03
 1.71396958e-03
 1.71396958e-03
 1.71396958e-03
 1.71396958e-03
 1.49798115e-03
 1.49798115e-03
 1.49798115e-03
 1.49798115e-03
 1.49798115e-03
 1.49798115e-03
 1.49798115e-03
 1.49798115e-03
 1.10569319e-03
 1.10569319e-03
 1.10569319e-03
 1.10569319e-03
 1.10569319e-03
 1.10569319e-03
 1.10569319e-03
 1.10569319e-03
 1.10569319e-03
 1.10569319e-03
 1.10569319e-03
 1.10569319e-03
 1.10569319e-03
 1.10569319e-03
 9.73203444e-04
 9.73203444e-04
 9.73203444e-04
 9.73203444e-04
 9.73203444e-04
 9.73203444e-04
 9.73203444e-04
 9.73203444e-04
 9.73203444e-04
 9.73203444e-04
 1.14802166e-03
 1.14802166e-03
 1.14802166e-03
 1.14802166e-03
 1.11482231e-03
 9.88252316e-04
 9.88252316e-04
 9.88252316e-04
 9.88252316e-04
 9.89077308e-04
 9.89077308e-04
 1.13963888e-03
 1.13963888e-03
 1.07551981e-03
 1.07551981e-03
)
)
1
(
101
(
 1.81432441e-05
 1.81432441e-05
 1.81432441e-05
 1.81432441e-05
 1.81432441e-05
 1.81432441e-05
 3.60603266e-05
 3.60603266e-05
 3.60603266e-05
 3.60603266e-05
 3.60603266e-05
 3.60603266e-05
 3.60603266e-05
 3.60603266e-05
 3.60603266e-05
 3.60603266e-05
 3.60603266e-05
 3.60603266e-05
 3.60603266e-05
 3.60603266e-05
 3.60603266e-05
 3.60603266e-05
 3.60603266e-05
 3.60603266e-05
 3.60603266e-05
 3.60603266e-05
 3.60603266e-05
 3.60603266e-05
 3.60603266e-05
 3.60603266e-05
 3.60603266e-05
 3.60603266e-05
 3.60603266e-05
 3.60603266e-05
 3.60603266e-05
 3.60603266e-05
 3.60603266e-05
 3.60603266e-05
 3.60603266e-05
 3.60603266e-05
 3.60603266e-05
 3.60603266e-05
 1.71396958e-03
 1.71396958e-03
 1.71396958e-03
 1.71396958e-03
 1.71396958e-03
 1.71396958e-03
 1.71396958e-03
 1.71396958e-03
 1.71396958e-03
 1.71396958e-03
 1.71396958e-03
 1.71396958e-03
 1.71396958e-03
 1.49798115e-03
 1.49798115e-03
 1.49798115e-03
 1.49798115e-03
 1.49798115e-03
 1.49798115e-03
 1.49798115e-03
 1.49798115e-03
 1.10569319e-03
 1.10569319e-03
 1.10569319e-03
 1.10569319e-03
 1.10569319e-03
 1.10569319e-03
 1.10569319e-03
 1.10569319e-03
 1.10569319e-03
 1.10569319e-03
 1.10569319e-03
 1.10569319e-03
 1.10569319e-03
 1.10569319e-03
 9.73203444e-04
 9.73203444e-04
 9.73203444e-04
 9.73203444e-04
 9.73203444e-04
 9.73203444e-04
 9.73203444e-04
 9.73203444e-04
 9.73203444e-04
 9.73203444e-04
 1.14802166e-03
 1.14802166e-03
 1.14802166e-03
 1.14802166e-03
 1.11482231e-03
 1.11482231e-03
 1.33637337e-03
 1.33637337e-03
 1.33637337e-03
 9.89077308e-04
 9.89077308e-04
 1.13963888e-03
 1.13963888e-03
 1.07551981e-03
)
)
1
(
101
(
 2.05699327e-05
 2.05699327e-05
 2.05699327e-05
 3.60603266e-05
 3.60603266e-05
 3.60603266e-05
 3.60603266e-05
 3.60603266e-05
 3.60603266e-05
 3.60603266e-05
 3.60603266e-05
 3.60603266e-05
 3.60603266e-05
 3.60603266e-05
 3.60603266e-05
 3.60603266e-05
 3.60603266e-05
 3.60603266e-05
 3.60603266e-05
 3.60603266e-05
 3.60603266e-05
 3.60603266e-05
 3.60603266e-05
 3.60603266e-05
 3.60603266e-05
 3.60603266e-05
 3.60603266e-05
 3.60603266e-05
 3.60603266e-05
 3.60603266e-05
 3.60603266e-05
 3.60603266e-05
 3.60603266e-05
 3.60603266e-05
 3.60603266e-05
 3.60603266e-05
 3.60603266e-05
 3.60603266e-05
 3.60603266e-05
 3.60603266e-05
 3.60603266e-05
 2.02256166e-03
 1.71396958e-03
 1.71396958e-03
 1.71396958e-03
 1.71396958e-03
 1.71396958e-03
 1.71396958e-03
 1.71396958e-03
 1.71396958e-03
 1.71396958e-03
 1.71396958e-03
 1.71396958e-03
 1.71396958e-03
 1.71396958e-03
 1.71396958e-03
 1.49798115e-03
 1.49798115e-03
 1.49798115e-03
 1.49798115e-03
 1.49798115e-03
 1.49798115e-03
 1.49798115e-03
 1.49798115e-03
 1.49798115e-03
 1.10569319e-03
 1.10569319e-03
 1.10569319e-03
 1.10569319e-03
 1.10569319e-03
 1.10569319e-03
 1.10569319e-03
 1.10569319e-03
 1.10569319e-03
 1.10569319e-03
 1.10569319e-03
 1.10569319e-03
 1.10569319e-03
 9.73203444e-04
 9.73203444e-04
 9.73203444e-04
 9.73203444e-04
 9.73203444e-04
 9.73203444e-04
 9.73203444e-04
 9.73203444e-04
 9.73203444e-04
 9.73203444e-04
 1.14802166e-03
 1.14802166e-03
 1.14802166e-03
 1.14802166e-03
 1.11482231e-03
 1.11482231e-03
 1.33637337e-03
 1.33637337e-03
 1.33637337e-03
 1.33637337e-03
 9.89077308e-04
 1.13963888e-03
 1.13963888e-03
)
)
1
(
101
(
 1.76429219e-05
 1.76429219e-05
 3.60603266e-05
 3.60603266e-05
 3.60603266e-05
 3.60603266e-05
 3.60603266e-05
 3.60603266e-05
 3.60603266e-05
 3.60603266e-05
 3.60603266e-05
 3.60603266e-05
 3.60603266e-05
 3.60603266e-05
 3.60603266e-05
 3.60603266e-05
 3.60603266e-05
 3.60603266e-05
 3.60603266e-05
 3.60603266e-05
 3.60603266e-05
 3.60603266e-05
 3.60603266e-05
 3.60603266e-05
 3.60603266e-05
 3.60603266e-05
 3.60603266e-05
 3.60603266e-05
 3.60603266e-05
 3.60603266e-05
 3.60603266e-05
 3.60603266e-05
 3.60603266e-05
 3.60603266e-05
 3.60603266e-05
 3.60603266e-05
 3.60603266e-05
 3.60603266e-05
 3.60603266e-05
 3.60603266e-05
 3.60603266e-05
 2.02256166e-03
 2.02256166e-03
 1.71396958e-03
 1.71396958e-03
 1.71396958e-03
 1.71396958e-03
 1.71396958e-03
 1.71396958e-03
 1.71396958e-03
 1.71396958e-03
 1.71396958e-03
 1.71396958e-03
 1.71396958e-03
 1.71396958e-03
 1.71396958e-03
 1.71396958e-03
 1.49798115e-03
 1.49798115e-03
 1.49798115e-03
 1.49798115e-03
 1.49798115e-03
 1.49798115e-03
 1.49798115e-03
 1.49798115e-03
 1.49798115e-03
 1.10569319e-03
 1.10569319e-03
 1.10569319e-03
 1.10569319e-03
 1.10569319e-03
 1.10569319e-03
 1.10569319e-03
 1.10569319e-03
 1.10569319e-03
 1.10569319e-03
 1.10569319e-03
 1.10569319e-03
 1.10569319e-03
 1.10569319e-03
 9.73203444e-04
 9.73203444e-04
 9.73203444e-04
 9.73203444e-04
 9.73203444e-04
 9.73203444e-04
 9.73203444e-04
 9.73203444e-04
 1.29899528e-03
 1.14802166e-03
 1.14802166e-03
 1.14802166e-03
 1.78010321e-03
 1.78010321e-03
 1.78010321e-03
 1.33637337e-03
 1.33637337e-03
 1.33637337e-03
 1.33637337e-03
 1.33637337e-03
 1.13963888e-03
)
)
1
(
101
(
 3.46734504e-06
 3.60603266e-05
 3.60603266e-05
 3.60603266e-05
 3.60603266e-05
 3.60603266e-05
 3.60603266e-05
 3.60603266e-05
 3.60603266e-05
 3.60603266e-05
 3.60603266e-05
 3.60603266e-05
 3.60603266e-05
 3.60603266e-05
 3.60603266e-05
 3.60603266e-05
 3.60603266e-05
 3.60603266e-05
 3.60603266e-05
 3.60603266e-05
 3.60603266e-05
 3.60603266e-05
 3.60603266e-05
 3.60603266e-05
 3.60603266e-05
 3.60603266e-05
 3.60603266e-05
 3.60603266e-05
 3.60603266e-05
 3.60603266e-05
 3.60603266e-05
 3.60603266e-05
 3.60603266e-05
 3.60603266e-05
 3.60603266e-05
 3.60603266e-05
 3.60603266e-05
 3.60603266e-05
 3.60603266e-05
 3.60603266e-05
 2.02256166e-03
 2.02256166e-03
 2.02256166e-03
 2.02256166e-03
 1.71396958e-03
 1.71396958e-03
 1.71396958e-03
 1.71396958e-03
 1.71396958e-03
 1.71396958e-03
 1.71396958e-03
 1.71396958e-03
 1.71396958e-03
 1.71396958e-03
 1.71396958e-03
 1.71396958e-03
 1.71396958e-03
 1.71396958e-03
 1.49798115e-03
 1.49798115e-03
 1.49798115e-03
 1.49798115e-03
 1.49798115e-03
 1.49798115e-03
 1.49798115e-03
 1.49798115e-03
 1.49798115e-03
 1.49798115e-03
 1.10569319e-03
 1.10569319e-03
 1.10569319e-03
 1.10569319e-03
 1.10569319e-03
 1.10569319e-03
 1.10569319e-03
 1.10569319e-03
 1.10569319e-03
 1.10569319e-03
 1.10569319e-03
 1.10569319e-03
 1.10569319e-03
 1.23223875e-03
 9.73203444e-04
 9.73203444e-04
 9.73203444e-04
 9.73203444e-04
 9.73203444e-04
 9.73203444e-04
 9.73203444e-04
 1.29899528e-03
 1.29899528e-03
 1.35554361e-03
 1.35554361e-03
 1.78010321e-03
 1.78010321e-03
 1.78010321e-03
 1.78010321e-03
 1.33637337e-03
 1.33637337e-03
 1.33637337e-03
 1.33637337e-03
)
)
1
(
101
(
 3.46734504e-06
 2.10586282e-05
 2.10586282e-05
 2.10586282e-05
 2.10586282e-05
 2.10586282e-05
 2.10586282e-05
 2.10586282e-05
 2.10586282e-05
 2.10586282e-05
 2.10586282e-05
 2.10586282e-05
 2.10586282e-05
 2.10586282e-05
 2.10586282e-05
 2.10586282e-05
 2.10586282e-05
 2.10586282e-05
 2.10586282e-05
 2.10586282e-05
 2.10586282e-05
 2.10586282e-05
 2.10586282e-05
 2.10586282e-05
 2.10586282e-05
 2.10586282e-05
 2.10586282e-05
 2.10586282e-05
 2.10586282e-05
 2.10586282e-05
 2.10586282e-05
 2.10586282e-05
 2.10586282e-05
 2.10586282e-05
 2.10586282e-05
 2.10586282e-05
 2.10586282e-05
 2.10586282e-05
 2.10586282e-05
 2.10586282e-05
 2.02256166e-03
 2.02256166e-03
 2.02256166e-03
 2.02256166e-03
 2.02256166e-03
 1.71396958e-03
 1.71396958e-03
 1.71396958e-03
 1.71396958e-03
 1.71396958e-03
 1.71396958e-03
 1.71396958e-03
 1.71396958e-03
 1.71396958e-03
 1.71396958e-03
 1.71396958e-03
 1.71396958e-03
 1.71396958e-03
 1.71396958e-03
 1.49798115e-03
 1.49798115e-03
 1.49798115e-03
 1.49798115e-03
 1.49798115e-03
 1.49798115e-03
 1.49798115e-03
 1.49798115e-03
 1.49798115e-03
 1.49798115e-03
 1.10569319e-03
 1.10569319e-03
 1.10569319e-03
 1.10569319e-03
 1.10569319e-03
 1.10569319e-03
 1.10569319e-03
 1.10569319e-03
 1.10569319e-03
 1.10569319e-03
 1.10569319e-03
 1.10569319e-03
 1.10569319e-03
 1.23223875e-03
 1.23223875e-03
 9.73203444e-04
 9.73203444e-04
 9.73203444e-04
 9.73203444e-04
 9.73203444e-04
 1.29899528e-03
 1.29899528e-03
 1.29899528e-03
 1.35554361e-03
 1.35554361e-03
 1.78010321e-03
 1.78010321e-03
 1.78010321e-03
 1.78010321e-03
 1.78010321e-03
 1.33637337e-03
 1.33637337e-03
)
)
1
(
101
(
 2.29330481e-05
 2.29330481e-05
 2.29330481e-05
 2.29330481e-05
 2.29330481e-05
 2.29330481e-05
 2.29330481e-05
 2.29330481e-05
 2.29330481e-05
 2.29330481e-05
 2.29330481e-05
 2.29330481e-05
 2.29330481e-05
 2.29330481e-05
 2.29330481e-05
 2.29330481e-05
 2.29330481e-05
 2.29330481e-05
 2.29330481e-05
 2.29330481e-05
 2.29330481e-05
 2.29330481e-05
 2.29330481e-05
 2.29330481e-05
 2.29330481e-05
 2.29330481e-05
 2.29330481e-05
 2.29330481e-05
 2.29330481e-05
 2.29330481e-05
 2.29330481e-05
 2.29330481e-05
 2.29330481e-05
 2.29330481e-05
 2.29330481e-05
 2.29330481e-05
 2.29330481e-05
 2.29330481e-05
 2.29330481e-05
 2.29330481e-05
 2.02256166e-03
 2.02256166e-03
 2.02256166e-03
 2.02256166e-03
 2.02256166e-03
 2.02256166e-03
 1.71396958e-03
 1.71396958e-03
 1.71396958e-03
 1.71396958e-03
 1.71396958e-03
 1.71396958e-03
 1.71396958e-03
 1.71396958e-03
 1.71396958e-03
 1.71396958e-03
 1.71396958e-03
 1.71396958e-03
 1.71396958e-03
 1.71396958e-03
 1.71396958e-03
 1.49798115e-03
 1.49798115e-03
 1.49798115e-03
 1.49798115e-03
 1.49798115e-03
 1.49798115e-03
 1.49798115e-03
 1.49798115e-03
 1.49798115e-03
 1.49798115e-03
 1.10569319e-03
 1.10569319e-03
 1.10569319e-03
 1.10569319e-03
 1.10569319e-03
 1.10569319e-03
 1.10569319e-03
 1.10569319e-03
 1.10569319e-03
 1.10569319e-03
 1.10569319e-03
 1.10569319e-03
 1.23223875e-03
 1.23223875e-03
 1.23223875e-03
 9.73203444e-04
 9.73203444e-04
 9.73203444e-04
 9.73203444e-04
 1.29899528e-03
 1.29899528e-03
 1.29899528e-03
 1.35554361e-03
 1.35554361e-03
 1.78010321e-03
 1.78010321e-03
 1.78010321e-03
 1.78010321e-03
 1.78010321e-03
 1.78010321e-03
)
)
1
(
101
(
 2.49974863e-05
 2.49974863e-05
 2.49974863e-05
 2.49974863e-05
 2.49974863e-05
 2.49974863e-05
 2.49974863e-05
 2.49974863e-05
 2.49974863e-05
 2.49974863e-05
 2.49974863e-05
 2.49974863e-05
 2.49974863e-05
 2.49974863e-05
 2.49974863e-05
 2.49974863e-05
 2.49974863e-05
 2.49974863e-05
 2.49974863e-05
 2.49974863e-05
 2.49974863e-05
 2.49974863e-05
 2.49974863e-05
 2.49974863e-05
 2.49974863e-05
 2.49974863e-05
 2.49974863e-05
 2.49974863e-05
 2.49974863e-05
 2.49974863e-05
 2.49974863e-05
 2.49974863e-05
 2.49974863e-05
 2.49974863e-05
 2.49974863e-05
 2.49974863e-05
 2.49974863e-05
 2.49974863e-05
 2.49974863e-05
 2.02256166e-03
 2.02256166e-03
 2.02256166e-03
 2.02256166e-03
 2.02256166e-03
 2.02256166e-03
 2.02256166e-03
 2.02256166e-03
 2.02256166e-03
 1.71396958e-03
 1.71396958e-03
 1.71396958e-03
 1.71396958e-03
 1.71396958e-03
 1.71396958e-03
 1.71396958e-03
 1.71396958e-03
 1.71396958e-03
 1.71396958e-03
 1.71396958e-03
 1.71396958e-03
 1.71396958e-03
 1.71396958e-03
 1.49798115e-03
 1.49798115e-03
 1.49798115e-03
 1.49798115e-03
 1.49798115e-03
 1.49798115e-03
 1.49798115e-03
 1.49798115e-03
 1.49798115e-03
 1.49798115e-03
 1.10569319e-03
 1.10569319e-03
 1.10569319e-03
 1.10569319e-03
 1.10569319e-03
 1.10569319e-03
 1.10569319e-03
 1.10569319e-03
 1.10569319e-03
 1.10569319e-03
 1.10569319e-03
 1.10569319e-03
 1.23223875e-03
 1.23223875e-03
 1.23223875e-03
 1.23223875e-03
 1.37077323e-03
 1.37077323e-03
 1.37077323e-03
 1.29899528e-03
 1.29899528e-03
 1.29899528e-03
 1.35554361e-03
 1.35554361e-03
 1.78010321e-03
 1.78010321e-03
 1.78010321e-03