/*--------------------------------*- C++ -*----------------------------------*\
| =========                 |                                                 |
| \\      /  F ield        | OpenFOAM: The Open Source CFD Toolbox           |
|  \\    /   O peration    | Version:  7                                     |
|   \\  /    A nd          | Web:      http://www.OpenFOAM.com               |
|    \\/     M anipulation |                                                 |
\*---------------------------------------------------------------------------*/

FoamFile
{
    version     2.0;
    format      ascii;
    class       dictionary;
    object      Y_H2CN_table;
}

Y_H2CN_table
2
(
101
(
1
(
101
(
 6.25544193e-15
 6.25544193e-15
 6.25544193e-15
 6.25544193e-15
 6.25544193e-15
 6.25544193e-15
 6.25544193e-15
 6.25544193e-15
 6.25544193e-15
 6.25544193e-15
 6.25544193e-15
 6.25544193e-15
 6.25544193e-15
 6.25544193e-15
 6.25544193e-15
 6.25544193e-15
 6.25544193e-15
 6.25544193e-15
 6.25544193e-15
 6.25544193e-15
 6.25544193e-15
 6.25544193e-15
 6.25544193e-15
 6.25544193e-15
 6.25544193e-15
 6.25544193e-15
 6.25544193e-15
 6.25544193e-15
 6.25544193e-15
 6.25544193e-15
 6.25544193e-15
 6.25544193e-15
 6.25544193e-15
 6.25544193e-15
 6.25544193e-15
 6.25544193e-15
 6.25544193e-15
 6.25544193e-15
 6.25544193e-15
 6.25544193e-15
 6.25544193e-15
 6.25544193e-15
 6.25544193e-15
 6.25544193e-15
 6.25544193e-15
 1.40791317e-10
 1.40791317e-10
 8.08454886e-11
 8.08454886e-11
 8.08454886e-11
 8.08454886e-11
 8.08454886e-11
 8.08454886e-11
 8.08454886e-11
 8.08454886e-11
 8.08454886e-11
 8.08454886e-11
 8.08454886e-11
 8.08454886e-11
 8.08454886e-11
 8.08454886e-11
 8.08454886e-11
 8.08454886e-11
 5.93868689e-11
 5.93868689e-11
 5.93868689e-11
 5.93868689e-11
 5.93868689e-11
 5.93868689e-11
 5.93868689e-11
 5.93868689e-11
 5.93868689e-11
 5.93868689e-11
 5.93868689e-11
 5.93868689e-11
 5.63410721e-11
 5.63410721e-11
 5.63410721e-11
 5.63410721e-11
 5.63410721e-11
 5.63410721e-11
 5.63410721e-11
 3.55329166e-11
 3.55329166e-11
 3.55329166e-11
 3.55329166e-11
 3.55329166e-11
 3.55329166e-11
 1.86155511e-11
 1.86155511e-11
 1.86155511e-11
 1.86155511e-11
 1.86155511e-11
 1.86155511e-11
 1.86155511e-11
 2.74180240e-12
 2.74180240e-12
 2.74180240e-12
 2.74180240e-12
 2.74180240e-12
 2.40565064e-14
)
)
1
(
101
(
 5.53740375e-13
 5.53740375e-13
 5.53740375e-13
 5.53740375e-13
 5.53740375e-13
 5.53740375e-13
 5.53740375e-13
 5.53740375e-13
 5.53740375e-13
 5.53740375e-13
 5.53740375e-13
 5.53740375e-13
 5.53740375e-13
 5.53740375e-13
 5.53740375e-13
 5.53740375e-13
 5.53740375e-13
 5.53740375e-13
 5.53740375e-13
 5.53740375e-13
 5.53740375e-13
 5.53740375e-13
 5.53740375e-13
 5.53740375e-13
 5.53740375e-13
 5.53740375e-13
 5.53740375e-13
 5.53740375e-13
 5.53740375e-13
 5.53740375e-13
 5.53740375e-13
 5.53740375e-13
 5.53740375e-13
 5.53740375e-13
 5.53740375e-13
 5.53740375e-13
 5.53740375e-13
 5.53740375e-13
 5.53740375e-13
 5.53740375e-13
 5.53740375e-13
 5.53740375e-13
 5.53740375e-13
 5.53740375e-13
 5.53740375e-13
 1.40791317e-10
 1.40791317e-10
 1.40791317e-10
 8.08454886e-11
 8.08454886e-11
 8.08454886e-11
 8.08454886e-11
 8.08454886e-11
 8.08454886e-11
 8.08454886e-11
 8.08454886e-11
 8.08454886e-11
 8.08454886e-11
 8.08454886e-11
 8.08454886e-11
 8.08454886e-11
 8.08454886e-11
 8.08454886e-11
 8.08454886e-11
 8.08454886e-11
 5.93868689e-11
 5.93868689e-11
 5.93868689e-11
 5.93868689e-11
 5.93868689e-11
 5.93868689e-11
 5.93868689e-11
 5.93868689e-11
 5.93868689e-11
 5.93868689e-11
 5.93868689e-11
 5.93868689e-11
 5.63410721e-11
 5.63410721e-11
 5.63410721e-11
 5.63410721e-11
 5.63410721e-11
 5.63410721e-11
 3.55329166e-11
 3.55329166e-11
 3.55329166e-11
 3.55329166e-11
 3.55329166e-11
 3.55329166e-11
 3.55329166e-11
 1.86155511e-11
 1.86155511e-11
 1.86155511e-11
 1.86155511e-11
 1.86155511e-11
 1.86155511e-11
 9.93915943e-12
 2.74180240e-12
 2.74180240e-12
 2.74180240e-12
 1.28865592e-12
)
)
1
(
101
(
 1.69066603e-12
 1.69066603e-12
 1.69066603e-12
 1.69066603e-12
 1.69066603e-12
 1.69066603e-12
 1.69066603e-12
 1.69066603e-12
 1.69066603e-12
 1.69066603e-12
 1.69066603e-12
 1.69066603e-12
 1.69066603e-12
 1.69066603e-12
 1.69066603e-12
 1.69066603e-12
 1.69066603e-12
 1.69066603e-12
 1.69066603e-12
 1.69066603e-12
 1.69066603e-12
 1.69066603e-12
 1.69066603e-12
 1.69066603e-12
 1.69066603e-12
 1.69066603e-12
 1.69066603e-12
 1.69066603e-12
 1.69066603e-12
 1.69066603e-12
 1.69066603e-12
 1.69066603e-12
 1.69066603e-12
 1.69066603e-12
 1.69066603e-12
 1.69066603e-12
 1.69066603e-12
 1.69066603e-12
 1.69066603e-12
 1.69066603e-12
 1.69066603e-12
 1.69066603e-12
 1.69066603e-12
 1.69066603e-12
 1.40791317e-10
 1.40791317e-10
 1.40791317e-10
 1.40791317e-10
 1.40791317e-10
 1.40791317e-10
 8.08454886e-11
 8.08454886e-11
 8.08454886e-11
 8.08454886e-11
 8.08454886e-11
 8.08454886e-11
 8.08454886e-11
 8.08454886e-11
 8.08454886e-11
 8.08454886e-11
 8.08454886e-11
 8.08454886e-11
 8.08454886e-11
 8.08454886e-11
 8.08454886e-11
 8.08454886e-11
 5.93868689e-11
 5.93868689e-11
 5.93868689e-11
 5.93868689e-11
 5.93868689e-11
 5.93868689e-11
 5.93868689e-11
 5.93868689e-11
 5.93868689e-11
 5.93868689e-11
 5.93868689e-11
 5.93868689e-11
 5.63410721e-11
 5.63410721e-11
 5.63410721e-11
 5.63410721e-11
 5.63410721e-11
 5.63410721e-11
 5.63410721e-11
 3.55329166e-11
 3.55329166e-11
 3.55329166e-11
 3.55329166e-11
 3.55329166e-11
 3.55329166e-11
 1.86155511e-11
 1.86155511e-11
 1.86155511e-11
 1.86155511e-11
 1.86155511e-11
 1.86155511e-11
 9.93915943e-12
 9.93915943e-12
 5.12212192e-12
 5.12212192e-12
)
)
1
(
101
(
 2.26575000e-12
 2.26575000e-12
 2.26575000e-12
 2.26575000e-12
 2.26575000e-12
 2.26575000e-12
 2.26575000e-12
 2.26575000e-12
 2.26575000e-12
 2.26575000e-12
 2.26575000e-12
 2.26575000e-12
 2.26575000e-12
 2.26575000e-12
 2.26575000e-12
 2.26575000e-12
 2.26575000e-12
 2.26575000e-12
 2.26575000e-12
 2.26575000e-12
 2.26575000e-12
 2.26575000e-12
 2.26575000e-12
 2.26575000e-12
 2.26575000e-12
 2.26575000e-12
 2.26575000e-12
 2.26575000e-12
 2.26575000e-12
 2.26575000e-12
 2.26575000e-12
 2.26575000e-12
 2.26575000e-12
 2.26575000e-12
 2.26575000e-12
 2.26575000e-12
 2.26575000e-12
 2.26575000e-12
 2.26575000e-12
 2.26575000e-12
 2.26575000e-12
 2.26575000e-12
 2.26575000e-12
 2.26575000e-12
 1.23894348e-10
 1.40791317e-10
 1.40791317e-10
 1.40791317e-10
 1.40791317e-10
 1.40791317e-10
 1.40791317e-10
 8.08454886e-11
 8.08454886e-11
 8.08454886e-11
 8.08454886e-11
 8.08454886e-11
 8.08454886e-11
 8.08454886e-11
 8.08454886e-11
 8.08454886e-11
 8.08454886e-11
 8.08454886e-11
 8.08454886e-11
 8.08454886e-11
 8.08454886e-11
 8.08454886e-11
 8.08454886e-11
 5.93868689e-11
 5.93868689e-11
 5.93868689e-11
 5.93868689e-11
 5.93868689e-11
 5.93868689e-11
 5.93868689e-11
 5.93868689e-11
 5.93868689e-11
 5.93868689e-11
 5.93868689e-11
 5.93868689e-11
 7.00276462e-11
 5.63410721e-11
 5.63410721e-11
 5.63410721e-11
 5.63410721e-11
 5.63410721e-11
 5.63410721e-11
 3.55329166e-11
 3.55329166e-11
 3.55329166e-11
 3.55329166e-11
 3.55329166e-11
 3.55329166e-11
 3.55329166e-11
 1.86155511e-11
 1.86155511e-11
 1.86155511e-11
 1.86155511e-11
 1.86155511e-11
 9.93915943e-12
 5.94353216e-12
 5.94353216e-12
)
)
1
(
101
(
 4.02555173e-12
 4.02555173e-12
 4.02555173e-12
 4.02555173e-12
 4.02555173e-12
 4.02555173e-12
 4.02555173e-12
 4.02555173e-12
 4.02555173e-12
 4.02555173e-12
 4.02555173e-12
 4.02555173e-12
 4.02555173e-12
 4.02555173e-12
 4.02555173e-12
 4.02555173e-12
 4.02555173e-12
 4.02555173e-12
 4.02555173e-12
 4.02555173e-12
 4.02555173e-12
 4.02555173e-12
 4.02555173e-12
 4.02555173e-12
 4.02555173e-12
 4.02555173e-12
 4.02555173e-12
 4.02555173e-12
 4.02555173e-12
 4.02555173e-12
 4.02555173e-12
 4.02555173e-12
 4.02555173e-12
 4.02555173e-12
 4.02555173e-12
 4.02555173e-12
 4.02555173e-12
 4.02555173e-12
 4.02555173e-12
 4.02555173e-12
 4.02555173e-12
 4.02555173e-12
 4.02555173e-12
 4.02555173e-12
 1.23894348e-10
 1.23894348e-10
 1.23894348e-10
 1.40791317e-10
 1.40791317e-10
 1.40791317e-10
 1.40791317e-10
 1.40791317e-10
 1.40791317e-10
 8.08454886e-11
 8.08454886e-11
 8.08454886e-11
 8.08454886e-11
 8.08454886e-11
 8.08454886e-11
 8.08454886e-11
 8.08454886e-11
 8.08454886e-11
 8.08454886e-11
 8.08454886e-11
 8.08454886e-11
 8.08454886e-11
 8.08454886e-11
 8.08454886e-11
 5.93868689e-11
 5.93868689e-11
 5.93868689e-11
 5.93868689e-11
 5.93868689e-11
 5.93868689e-11
 5.93868689e-11
 5.93868689e-11
 5.93868689e-11
 5.93868689e-11
 5.93868689e-11
 5.93868689e-11
 7.00276462e-11
 5.63410721e-11
 5.63410721e-11
 5.63410721e-11
 5.63410721e-11
 5.63410721e-11
 5.63410721e-11
 5.63410721e-11
 3.55329166e-11
 3.55329166e-11
 3.55329166e-11
 3.55329166e-11
 3.55329166e-11
 3.55329166e-11
 2.13624986e-11
 1.86155511e-11
 1.86155511e-11
 1.86155511e-11
 1.22517750e-11
 1.22517750e-11
 5.94353216e-12
)
)
1
(
101
(
 4.88846668e-12
 4.88846668e-12
 4.88846668e-12
 4.88846668e-12
 4.88846668e-12
 4.88846668e-12
 4.88846668e-12
 4.88846668e-12
 4.88846668e-12
 4.88846668e-12
 4.88846668e-12
 4.88846668e-12
 4.88846668e-12
 4.88846668e-12
 4.88846668e-12
 4.88846668e-12
 4.88846668e-12
 4.88846668e-12
 4.88846668e-12
 4.88846668e-12
 4.88846668e-12
 4.88846668e-12
 4.88846668e-12
 4.88846668e-12
 4.88846668e-12
 4.88846668e-12
 4.88846668e-12
 4.88846668e-12
 4.88846668e-12
 4.88846668e-12
 4.88846668e-12
 4.88846668e-12
 4.88846668e-12
 4.88846668e-12
 4.88846668e-12
 4.88846668e-12
 4.88846668e-12
 4.88846668e-12
 4.88846668e-12
 4.88846668e-12
 4.88846668e-12
 4.88846668e-12
 3.37115966e-11
 1.23894348e-10
 1.23894348e-10
 1.23894348e-10
 1.23894348e-10
 1.23894348e-10
 1.40791317e-10
 1.40791317e-10
 1.40791317e-10
 1.40791317e-10
 1.40791317e-10
 1.40791317e-10
 8.08454886e-11
 8.08454886e-11
 8.08454886e-11
 8.08454886e-11
 8.08454886e-11
 8.08454886e-11
 8.08454886e-11
 8.08454886e-11
 8.08454886e-11
 8.08454886e-11
 8.08454886e-11
 8.08454886e-11
 8.08454886e-11
 8.08454886e-11
 8.08454886e-11
 8.08454886e-11
 5.93868689e-11
 5.93868689e-11
 5.93868689e-11
 5.93868689e-11
 5.93868689e-11
 5.93868689e-11
 5.93868689e-11
 5.93868689e-11
 5.93868689e-11
 5.93868689e-11
 5.93868689e-11
 7.00276462e-11
 7.00276462e-11
 5.63410721e-11
 5.63410721e-11
 5.63410721e-11
 5.63410721e-11
 5.63410721e-11
 5.63410721e-11
 3.55329166e-11
 3.55329166e-11
 3.55329166e-11
 3.55329166e-11
 3.55329166e-11
 3.55329166e-11
 2.13624986e-11
 2.13624986e-11
 1.79176957e-11
 1.79176957e-11
 1.22517750e-11
 1.22517750e-11
)
)
1
(
101
(
 6.66374476e-12
 6.66374476e-12
 6.66374476e-12
 6.66374476e-12
 6.66374476e-12
 6.66374476e-12
 6.66374476e-12
 6.66374476e-12
 6.66374476e-12
 6.66374476e-12
 6.66374476e-12
 6.66374476e-12
 6.66374476e-12
 6.66374476e-12
 6.66374476e-12
 6.66374476e-12
 6.66374476e-12
 6.66374476e-12
 6.66374476e-12
 6.66374476e-12
 6.66374476e-12
 6.66374476e-12
 6.66374476e-12
 6.66374476e-12
 6.66374476e-12
 6.66374476e-12
 6.66374476e-12
 6.66374476e-12
 6.66374476e-12
 6.66374476e-12
 6.66374476e-12
 6.66374476e-12
 6.66374476e-12
 3.37115966e-11
 3.37115966e-11
 3.37115966e-11
 3.37115966e-11
 3.37115966e-11
 3.37115966e-11
 3.37115966e-11
 3.37115966e-11
 3.37115966e-11
 3.37115966e-11
 1.23894348e-10
 1.23894348e-10
 1.23894348e-10
 1.23894348e-10
 1.23894348e-10
 1.23894348e-10
 1.40791317e-10
 1.40791317e-10
 1.40791317e-10
 1.40791317e-10
 1.40791317e-10
 1.40791317e-10
 1.40791317e-10
 8.08454886e-11
 8.08454886e-11
 8.08454886e-11
 8.08454886e-11
 8.08454886e-11
 8.08454886e-11
 8.08454886e-11
 8.08454886e-11
 8.08454886e-11
 8.08454886e-11
 8.08454886e-11
 8.08454886e-11
 8.08454886e-11
 8.08454886e-11
 8.08454886e-11
 5.93868689e-11
 5.93868689e-11
 5.93868689e-11
 5.93868689e-11
 5.93868689e-11
 5.93868689e-11
 5.93868689e-11
 5.93868689e-11
 5.93868689e-11
 5.93868689e-11
 5.93868689e-11
 7.00276462e-11
 7.00276462e-11
 5.63410721e-11
 5.63410721e-11
 5.63410721e-11
 5.63410721e-11
 5.63410721e-11
 5.63410721e-11
 5.63410721e-11
 3.55329166e-11
 3.55329166e-11
 3.55329166e-11
 3.55329166e-11
 3.55329166e-11
 2.13624986e-11
 2.13624986e-11
 1.79176957e-11
 1.79176957e-11
 1.22517750e-11
)
)
1
(
101
(
 8.80875196e-12
 8.80875196e-12
 8.80875196e-12
 8.80875196e-12
 8.80875196e-12
 8.80875196e-12
 8.80875196e-12
 8.80875196e-12
 8.80875196e-12
 8.80875196e-12
 8.80875196e-12
 8.80875196e-12
 8.80875196e-12
 8.80875196e-12
 8.80875196e-12
 8.80875196e-12
 8.80875196e-12
 8.80875196e-12
 8.80875196e-12
 8.80875196e-12
 8.80875196e-12
 8.80875196e-12
 8.80875196e-12
 8.80875196e-12
 8.80875196e-12
 8.80875196e-12
 3.37115966e-11
 3.37115966e-11
 3.37115966e-11
 3.37115966e-11
 3.37115966e-11
 3.37115966e-11
 3.37115966e-11
 3.37115966e-11
 3.37115966e-11
 3.37115966e-11
 3.37115966e-11
 3.37115966e-11
 3.37115966e-11
 3.37115966e-11
 3.37115966e-11
 3.37115966e-11
 3.37115966e-11
 1.23894348e-10
 1.23894348e-10
 1.23894348e-10
 1.23894348e-10
 1.23894348e-10
 1.23894348e-10
 1.23894348e-10
 1.40791317e-10
 1.40791317e-10
 1.40791317e-10
 1.40791317e-10
 1.40791317e-10
 1.40791317e-10
 1.40791317e-10
 8.08454886e-11
 8.08454886e-11
 8.08454886e-11
 8.08454886e-11
 8.08454886e-11
 8.08454886e-11
 8.08454886e-11
 8.08454886e-11
 8.08454886e-11
 8.08454886e-11
 8.08454886e-11
 8.08454886e-11
 8.08454886e-11
 8.08454886e-11
 8.08454886e-11
 5.93868689e-11
 5.93868689e-11
 5.93868689e-11
 5.93868689e-11
 5.93868689e-11
 5.93868689e-11
 5.93868689e-11
 5.93868689e-11
 5.93868689e-11
 5.93868689e-11
 5.93868689e-11
 7.00276462e-11
 7.00276462e-11
 7.00276462e-11
 5.63410721e-11
 5.63410721e-11
 5.63410721e-11
 5.63410721e-11
 5.63410721e-11
 5.63410721e-11
 4.06865891e-11
 3.55329166e-11
 3.55329166e-11
 3.55329166e-11
 2.66934467e-11
 2.66934467e-11
 2.66934467e-11
 1.79176957e-11
 1.79176957e-11
)
)
1
(
101
(
 8.81341287e-12
 8.81341287e-12
 8.81341287e-12
 8.81341287e-12
 8.81341287e-12
 8.81341287e-12
 8.81341287e-12
 8.81341287e-12
 8.81341287e-12
 8.81341287e-12
 8.81341287e-12
 8.81341287e-12
 8.81341287e-12
 8.81341287e-12
 8.81341287e-12
 8.81341287e-12
 8.81341287e-12
 8.81341287e-12
 8.81341287e-12
 3.37115966e-11
 3.37115966e-11
 3.37115966e-11
 3.37115966e-11
 3.37115966e-11
 3.37115966e-11
 3.37115966e-11
 3.37115966e-11
 3.37115966e-11
 3.37115966e-11
 3.37115966e-11
 3.37115966e-11
 3.37115966e-11
 3.37115966e-11
 3.37115966e-11
 3.37115966e-11
 3.37115966e-11
 3.37115966e-11
 3.37115966e-11
 3.37115966e-11
 3.37115966e-11
 3.37115966e-11
 3.37115966e-11
 1.23894348e-10
 1.23894348e-10
 1.23894348e-10
 1.23894348e-10
 1.23894348e-10
 1.23894348e-10
 1.23894348e-10
 1.23894348e-10
 1.23894348e-10
 1.40791317e-10
 1.40791317e-10
 1.40791317e-10
 1.40791317e-10
 1.40791317e-10
 1.40791317e-10
 1.40791317e-10
 1.40791317e-10
 8.08454886e-11
 8.08454886e-11
 8.08454886e-11
 8.08454886e-11
 8.08454886e-11
 8.08454886e-11
 8.08454886e-11
 8.08454886e-11
 8.08454886e-11
 8.08454886e-11
 8.08454886e-11
 8.08454886e-11
 8.08454886e-11
 8.08454886e-11
 5.93868689e-11
 5.93868689e-11
 5.93868689e-11
 5.93868689e-11
 5.93868689e-11
 5.93868689e-11
 5.93868689e-11
 5.93868689e-11
 5.93868689e-11
 5.93868689e-11
 5.93868689e-11
 7.00276462e-11
 7.00276462e-11
 7.00276462e-11
 5.63410721e-11
 5.63410721e-11
 5.63410721e-11
 5.63410721e-11
 5.63410721e-11
 5.63410721e-11
 4.06865891e-11
 4.06865891e-11
 3.13521497e-11
 3.13521497e-11
 2.66934467e-11
 2.66934467e-11
 2.66934467e-11
 2.66934467e-11
)
)
1
(
101
(
 1.22600599e-11
 1.22600599e-11
 1.22600599e-11
 1.22600599e-11
 1.22600599e-11
 1.22600599e-11
 1.22600599e-11
 1.22600599e-11
 1.22600599e-11
 1.22600599e-11
 1.22600599e-11
 1.22600599e-11
 1.22600599e-11
 1.22600599e-11
 3.37115966e-11
 3.37115966e-11
 3.37115966e-11
 3.37115966e-11
 3.37115966e-11
 3.37115966e-11
 3.37115966e-11
 3.37115966e-11
 3.37115966e-11
 3.37115966e-11
 3.37115966e-11
 3.37115966e-11
 3.37115966e-11
 3.37115966e-11
 3.37115966e-11
 3.37115966e-11
 3.37115966e-11
 3.37115966e-11
 3.37115966e-11
 3.37115966e-11
 3.37115966e-11
 3.37115966e-11
 3.37115966e-11
 3.37115966e-11
 3.37115966e-11
 3.37115966e-11
 3.37115966e-11
 3.37115966e-11
 1.23894348e-10
 1.23894348e-10
 1.23894348e-10
 1.23894348e-10
 1.23894348e-10
 1.23894348e-10
 1.23894348e-10
 1.23894348e-10
 1.23894348e-10
 1.23894348e-10
 1.40791317e-10
 1.40791317e-10
 1.40791317e-10
 1.40791317e-10
 1.40791317e-10
 1.40791317e-10
 1.40791317e-10
 1.40791317e-10
 8.08454886e-11
 8.08454886e-11
 8.08454886e-11
 8.08454886e-11
 8.08454886e-11
 8.08454886e-11
 8.08454886e-11
 8.08454886e-11
 8.08454886e-11
 8.08454886e-11
 8.08454886e-11
 8.08454886e-11
 8.08454886e-11
 8.08454886e-11
 8.08454886e-11
 5.93868689e-11
 5.93868689e-11
 5.93868689e-11
 5.93868689e-11
 5.93868689e-11
 5.93868689e-11
 5.93868689e-11
 5.93868689e-11
 5.93868689e-11
 5.93868689e-11
 7.00276462e-11
 7.00276462e-11
 7.00276462e-11
 7.00276462e-11
 5.63410721e-11
 5.63410721e-11
 5.63410721e-11
 5.63410721e-11
 5.63410721e-11
 4.06865891e-11
 4.06865891e-11
 3.13521497e-11
 3.13521497e-11
 2.66934467e-11
 2.66934467e-11
 2.66934467e-11
)
)
1
(
101
(
 1.26175864e-11
 1.26175864e-11
 1.26175864e-11
 1.26175864e-11
 1.26175864e-11
 1.26175864e-11
 1.26175864e-11
 1.26175864e-11
 1.26175864e-11
 3.37115966e-11
 3.37115966e-11
 3.37115966e-11
 3.37115966e-11
 3.37115966e-11
 3.37115966e-11
 3.37115966e-11
 3.37115966e-11
 3.37115966e-11
 3.37115966e-11
 3.37115966e-11
 3.37115966e-11
 3.37115966e-11
 3.37115966e-11
 3.37115966e-11
 3.37115966e-11
 3.37115966e-11
 3.37115966e-11
 3.37115966e-11
 3.37115966e-11
 3.37115966e-11
 3.37115966e-11
 3.37115966e-11
 3.37115966e-11
 3.37115966e-11
 3.37115966e-11
 3.37115966e-11
 3.37115966e-11
 3.37115966e-11
 3.37115966e-11
 3.37115966e-11
 3.37115966e-11
 3.37115966e-11
 1.23894348e-10
 1.23894348e-10
 1.23894348e-10
 1.23894348e-10
 1.23894348e-10
 1.23894348e-10
 1.23894348e-10
 1.23894348e-10
 1.23894348e-10
 1.23894348e-10
 1.23894348e-10
 1.23894348e-10
 1.40791317e-10
 1.40791317e-10
 1.40791317e-10
 1.40791317e-10
 1.40791317e-10
 1.40791317e-10
 1.40791317e-10
 1.40791317e-10
 8.08454886e-11
 8.08454886e-11
 8.08454886e-11
 8.08454886e-11
 8.08454886e-11
 8.08454886e-11
 8.08454886e-11
 8.08454886e-11
 8.08454886e-11
 8.08454886e-11
 8.08454886e-11
 8.08454886e-11
 8.08454886e-11
 8.08454886e-11
 5.93868689e-11
 5.93868689e-11
 5.93868689e-11
 5.93868689e-11
 5.93868689e-11
 5.93868689e-11
 5.93868689e-11
 5.93868689e-11
 5.93868689e-11
 5.93868689e-11
 7.00276462e-11
 7.00276462e-11
 7.00276462e-11
 7.00276462e-11
 6.02180911e-11
 5.63410721e-11
 5.63410721e-11
 5.63410721e-11
 5.63410721e-11
 4.06865891e-11
 4.06865891e-11
 3.13521497e-11
 3.13521497e-11
 2.66934467e-11
 2.66934467e-11
)
)
1
(
101
(
 1.33308709e-11
 1.33308709e-11
 1.33308709e-11
 1.33308709e-11
 1.33308709e-11
 1.33308709e-11
 3.37115966e-11
 3.37115966e-11
 3.37115966e-11
 3.37115966e-11
 3.37115966e-11
 3.37115966e-11
 3.37115966e-11
 3.37115966e-11
 3.37115966e-11
 3.37115966e-11
 3.37115966e-11
 3.37115966e-11
 3.37115966e-11
 3.37115966e-11
 3.37115966e-11
 3.37115966e-11
 3.37115966e-11
 3.37115966e-11
 3.37115966e-11
 3.37115966e-11
 3.37115966e-11
 3.37115966e-11
 3.37115966e-11
 3.37115966e-11
 3.37115966e-11
 3.37115966e-11
 3.37115966e-11
 3.37115966e-11
 3.37115966e-11
 3.37115966e-11
 3.37115966e-11
 3.37115966e-11
 3.37115966e-11
 3.37115966e-11
 3.37115966e-11
 3.37115966e-11
 1.23894348e-10
 1.23894348e-10
 1.23894348e-10
 1.23894348e-10
 1.23894348e-10
 1.23894348e-10
 1.23894348e-10
 1.23894348e-10
 1.23894348e-10
 1.23894348e-10
 1.23894348e-10
 1.23894348e-10
 1.23894348e-10
 1.40791317e-10
 1.40791317e-10
 1.40791317e-10
 1.40791317e-10
 1.40791317e-10
 1.40791317e-10
 1.40791317e-10
 1.40791317e-10
 8.08454886e-11
 8.08454886e-11
 8.08454886e-11
 8.08454886e-11
 8.08454886e-11
 8.08454886e-11
 8.08454886e-11
 8.08454886e-11
 8.08454886e-11
 8.08454886e-11
 8.08454886e-11
 8.08454886e-11
 8.08454886e-11
 8.08454886e-11
 5.93868689e-11
 5.93868689e-11
 5.93868689e-11
 5.93868689e-11
 5.93868689e-11
 5.93868689e-11
 5.93868689e-11
 5.93868689e-11
 5.93868689e-11
 5.93868689e-11
 7.00276462e-11
 7.00276462e-11
 7.00276462e-11
 7.00276462e-11
 6.02180911e-11
 6.02180911e-11
 4.45228029e-11
 4.45228029e-11
 4.45228029e-11
 4.06865891e-11
 4.06865891e-11
 3.13521497e-11
 3.13521497e-11
 2.66934467e-11
)
)
1
(
101
(
 1.61942936e-11
 1.61942936e-11
 1.61942936e-11
 3.37115966e-11
 3.37115966e-11
 3.37115966e-11
 3.37115966e-11
 3.37115966e-11
 3.37115966e-11
 3.37115966e-11
 3.37115966e-11
 3.37115966e-11
 3.37115966e-11
 3.37115966e-11
 3.37115966e-11
 3.37115966e-11
 3.37115966e-11
 3.37115966e-11
 3.37115966e-11
 3.37115966e-11
 3.37115966e-11
 3.37115966e-11
 3.37115966e-11
 3.37115966e-11
 3.37115966e-11
 3.37115966e-11
 3.37115966e-11
 3.37115966e-11
 3.37115966e-11
 3.37115966e-11
 3.37115966e-11
 3.37115966e-11
 3.37115966e-11
 3.37115966e-11
 3.37115966e-11
 3.37115966e-11
 3.37115966e-11
 3.37115966e-11
 3.37115966e-11
 3.37115966e-11
 3.37115966e-11
 5.78101123e-11
 1.23894348e-10
 1.23894348e-10
 1.23894348e-10
 1.23894348e-10
 1.23894348e-10
 1.23894348e-10
 1.23894348e-10
 1.23894348e-10
 1.23894348e-10
 1.23894348e-10
 1.23894348e-10
 1.23894348e-10
 1.23894348e-10
 1.23894348e-10
 1.40791317e-10
 1.40791317e-10
 1.40791317e-10
 1.40791317e-10
 1.40791317e-10
 1.40791317e-10
 1.40791317e-10
 1.40791317e-10
 1.40791317e-10
 8.08454886e-11
 8.08454886e-11
 8.08454886e-11
 8.08454886e-11
 8.08454886e-11
 8.08454886e-11
 8.08454886e-11
 8.08454886e-11
 8.08454886e-11
 8.08454886e-11
 8.08454886e-11
 8.08454886e-11
 8.08454886e-11
 5.93868689e-11
 5.93868689e-11
 5.93868689e-11
 5.93868689e-11
 5.93868689e-11
 5.93868689e-11
 5.93868689e-11
 5.93868689e-11
 5.93868689e-11
 5.93868689e-11
 7.00276462e-11
 7.00276462e-11
 7.00276462e-11
 7.00276462e-11
 6.02180911e-11
 6.02180911e-11
 4.45228029e-11
 4.45228029e-11
 4.45228029e-11
 4.45228029e-11
 4.06865891e-11
 3.13521497e-11
 3.13521497e-11
)
)
1
(
101
(
 1.02264584e-11
 1.02264584e-11
 3.37115966e-11
 3.37115966e-11
 3.37115966e-11
 3.37115966e-11
 3.37115966e-11
 3.37115966e-11
 3.37115966e-11
 3.37115966e-11
 3.37115966e-11
 3.37115966e-11
 3.37115966e-11
 3.37115966e-11
 3.37115966e-11
 3.37115966e-11
 3.37115966e-11
 3.37115966e-11
 3.37115966e-11
 3.37115966e-11
 3.37115966e-11
 3.37115966e-11
 3.37115966e-11
 3.37115966e-11
 3.37115966e-11
 3.37115966e-11
 3.37115966e-11
 3.37115966e-11
 3.37115966e-11
 3.37115966e-11
 3.37115966e-11
 3.37115966e-11
 3.37115966e-11
 3.37115966e-11
 3.37115966e-11
 3.37115966e-11
 3.37115966e-11
 3.37115966e-11
 3.37115966e-11
 3.37115966e-11
 3.37115966e-11
 5.78101123e-11
 5.78101123e-11
 1.23894348e-10
 1.23894348e-10
 1.23894348e-10
 1.23894348e-10
 1.23894348e-10
 1.23894348e-10
 1.23894348e-10
 1.23894348e-10
 1.23894348e-10
 1.23894348e-10
 1.23894348e-10
 1.23894348e-10
 1.23894348e-10
 1.23894348e-10
 1.40791317e-10
 1.40791317e-10
 1.40791317e-10
 1.40791317e-10
 1.40791317e-10
 1.40791317e-10
 1.40791317e-10
 1.40791317e-10
 1.40791317e-10
 8.08454886e-11
 8.08454886e-11
 8.08454886e-11
 8.08454886e-11
 8.08454886e-11
 8.08454886e-11
 8.08454886e-11
 8.08454886e-11
 8.08454886e-11
 8.08454886e-11
 8.08454886e-11
 8.08454886e-11
 8.08454886e-11
 8.08454886e-11
 5.93868689e-11
 5.93868689e-11
 5.93868689e-11
 5.93868689e-11
 5.93868689e-11
 5.93868689e-11
 5.93868689e-11
 5.93868689e-11
 7.54191524e-11
 7.00276462e-11
 7.00276462e-11
 7.00276462e-11
 4.30045786e-11
 4.30045786e-11
 4.30045786e-11
 4.45228029e-11
 4.45228029e-11
 4.45228029e-11
 4.45228029e-11
 4.45228029e-11
 3.13521497e-11
)
)
1
(
101
(
 4.06664437e-15
 3.37115966e-11
 3.37115966e-11
 3.37115966e-11
 3.37115966e-11
 3.37115966e-11
 3.37115966e-11
 3.37115966e-11
 3.37115966e-11
 3.37115966e-11
 3.37115966e-11
 3.37115966e-11
 3.37115966e-11
 3.37115966e-11
 3.37115966e-11
 3.37115966e-11
 3.37115966e-11
 3.37115966e-11
 3.37115966e-11
 3.37115966e-11
 3.37115966e-11
 3.37115966e-11
 3.37115966e-11
 3.37115966e-11
 3.37115966e-11
 3.37115966e-11
 3.37115966e-11
 3.37115966e-11
 3.37115966e-11
 3.37115966e-11
 3.37115966e-11
 3.37115966e-11
 3.37115966e-11
 3.37115966e-11
 3.37115966e-11
 3.37115966e-11
 3.37115966e-11
 3.37115966e-11
 3.37115966e-11
 3.37115966e-11
 5.78101123e-11
 5.78101123e-11
 5.78101123e-11
 5.78101123e-11
 1.23894348e-10
 1.23894348e-10
 1.23894348e-10
 1.23894348e-10
 1.23894348e-10
 1.23894348e-10
 1.23894348e-10
 1.23894348e-10
 1.23894348e-10
 1.23894348e-10
 1.23894348e-10
 1.23894348e-10
 1.23894348e-10
 1.23894348e-10
 1.40791317e-10
 1.40791317e-10
 1.40791317e-10
 1.40791317e-10
 1.40791317e-10
 1.40791317e-10
 1.40791317e-10
 1.40791317e-10
 1.40791317e-10
 1.40791317e-10
 8.08454886e-11
 8.08454886e-11
 8.08454886e-11
 8.08454886e-11
 8.08454886e-11
 8.08454886e-11
 8.08454886e-11
 8.08454886e-11
 8.08454886e-11
 8.08454886e-11
 8.08454886e-11
 8.08454886e-11
 8.08454886e-11
 1.09010754e-10
 5.93868689e-11
 5.93868689e-11
 5.93868689e-11
 5.93868689e-11
 5.93868689e-11
 5.93868689e-11
 5.93868689e-11
 7.54191524e-11
 7.54191524e-11
 6.50212194e-11
 6.50212194e-11
 4.30045786e-11
 4.30045786e-11
 4.30045786e-11
 4.30045786e-11
 4.45228029e-11
 4.45228029e-11
 4.45228029e-11
 4.45228029e-11
)
)
1
(
101
(
 4.06664437e-15
 1.84865337e-11
 1.84865337e-11
 1.84865337e-11
 1.84865337e-11
 1.84865337e-11
 1.84865337e-11
 1.84865337e-11
 1.84865337e-11
 1.84865337e-11
 1.84865337e-11
 1.84865337e-11
 1.84865337e-11
 1.84865337e-11
 1.84865337e-11
 1.84865337e-11
 1.84865337e-11
 1.84865337e-11
 1.84865337e-11
 1.84865337e-11
 1.84865337e-11
 1.84865337e-11
 1.84865337e-11
 1.84865337e-11
 1.84865337e-11
 1.84865337e-11
 1.84865337e-11
 1.84865337e-11
 1.84865337e-11
 1.84865337e-11
 1.84865337e-11
 1.84865337e-11
 1.84865337e-11
 1.84865337e-11
 1.84865337e-11
 1.84865337e-11
 1.84865337e-11
 1.84865337e-11
 1.84865337e-11
 1.84865337e-11
 5.78101123e-11
 5.78101123e-11
 5.78101123e-11
 5.78101123e-11
 5.78101123e-11
 1.23894348e-10
 1.23894348e-10
 1.23894348e-10
 1.23894348e-10
 1.23894348e-10
 1.23894348e-10
 1.23894348e-10
 1.23894348e-10
 1.23894348e-10
 1.23894348e-10
 1.23894348e-10
 1.23894348e-10
 1.23894348e-10
 1.23894348e-10
 1.40791317e-10
 1.40791317e-10
 1.40791317e-10
 1.40791317e-10
 1.40791317e-10
 1.40791317e-10
 1.40791317e-10
 1.40791317e-10
 1.40791317e-10
 1.40791317e-10
 8.08454886e-11
 8.08454886e-11
 8.08454886e-11
 8.08454886e-11
 8.08454886e-11
 8.08454886e-11
 8.08454886e-11
 8.08454886e-11
 8.08454886e-11
 8.08454886e-11
 8.08454886e-11
 8.08454886e-11
 8.08454886e-11
 1.09010754e-10
 1.09010754e-10
 5.93868689e-11
 5.93868689e-11
 5.93868689e-11
 5.93868689e-11
 5.93868689e-11
 7.54191524e-11
 7.54191524e-11
 7.54191524e-11
 6.50212194e-11
 6.50212194e-11
 4.30045786e-11
 4.30045786e-11
 4.30045786e-11
 4.30045786e-11
 4.30045786e-11
 4.45228029e-11
 4.45228029e-11
)
)
1
(
101
(
 2.26718148e-11
 2.26718148e-11
 2.26718148e-11
 2.26718148e-11
 2.26718148e-11
 2.26718148e-11
 2.26718148e-11
 2.26718148e-11
 2.26718148e-11
 2.26718148e-11
 2.26718148e-11
 2.26718148e-11
 2.26718148e-11
 2.26718148e-11
 2.26718148e-11
 2.26718148e-11
 2.26718148e-11
 2.26718148e-11
 2.26718148e-11
 2.26718148e-11
 2.26718148e-11
 2.26718148e-11
 2.26718148e-11
 2.26718148e-11
 2.26718148e-11
 2.26718148e-11
 2.26718148e-11
 2.26718148e-11
 2.26718148e-11
 2.26718148e-11
 2.26718148e-11
 2.26718148e-11
 2.26718148e-11
 2.26718148e-11
 2.26718148e-11
 2.26718148e-11
 2.26718148e-11
 2.26718148e-11
 2.26718148e-11
 2.26718148e-11
 5.78101123e-11
 5.78101123e-11
 5.78101123e-11
 5.78101123e-11
 5.78101123e-11
 5.78101123e-11
 1.23894348e-10
 1.23894348e-10
 1.23894348e-10
 1.23894348e-10
 1.23894348e-10
 1.23894348e-10
 1.23894348e-10
 1.23894348e-10
 1.23894348e-10
 1.23894348e-10
 1.23894348e-10
 1.23894348e-10
 1.23894348e-10
 1.23894348e-10
 1.23894348e-10
 1.40791317e-10
 1.40791317e-10
 1.40791317e-10
 1.40791317e-10
 1.40791317e-10
 1.40791317e-10
 1.40791317e-10
 1.40791317e-10
 1.40791317e-10
 1.40791317e-10
 8.08454886e-11
 8.08454886e-11
 8.08454886e-11
 8.08454886e-11
 8.08454886e-11
 8.08454886e-11
 8.08454886e-11
 8.08454886e-11
 8.08454886e-11
 8.08454886e-11
 8.08454886e-11
 8.08454886e-11
 1.09010754e-10
 1.09010754e-10
 1.09010754e-10
 5.93868689e-11
 5.93868689e-11
 5.93868689e-11
 5.93868689e-11
 7.54191524e-11
 7.54191524e-11
 7.54191524e-11
 6.50212194e-11
 6.50212194e-11
 4.30045786e-11
 4.30045786e-11
 4.30045786e-11
 4.30045786e-11
 4.30045786e-11
 4.30045786e-11
)
)
1
(
101
(
 2.49676022e-11
 2.49676022e-11
 2.49676022e-11
 2.49676022e-11
 2.49676022e-11
 2.49676022e-11
 2.49676022e-11
 2.49676022e-11
 2.49676022e-11
 2.49676022e-11
 2.49676022e-11
 2.49676022e-11
 2.49676022e-11
 2.49676022e-11
 2.49676022e-11
 2.49676022e-11
 2.49676022e-11
 2.49676022e-11
 2.49676022e-11
 2.49676022e-11
 2.49676022e-11
 2.49676022e-11
 2.49676022e-11
 2.49676022e-11
 2.49676022e-11
 2.49676022e-11
 2.49676022e-11
 2.49676022e-11
 2.49676022e-11
 2.49676022e-11
 2.49676022e-11
 2.49676022e-11
 2.49676022e-11
 2.49676022e-11
 2.49676022e-11
 2.49676022e-11
 2.49676022e-11
 2.49676022e-11
 2.49676022e-11
 5.78101123e-11
 5.78101123e-11
 5.78101123e-11
 5.78101123e-11
 5.78101123e-11
 5.78101123e-11
 5.78101123e-11
 5.78101123e-11
 5.78101123e-11
 1.23894348e-10
 1.23894348e-10
 1.23894348e-10
 1.23894348e-10
 1.23894348e-10
 1.23894348e-10
 1.23894348e-10
 1.23894348e-10
 1.23894348e-10
 1.23894348e-10
 1.23894348e-10
 1.23894348e-10
 1.23894348e-10
 1.23894348e-10
 1.40791317e-10
 1.40791317e-10
 1.40791317e-10
 1.40791317e-10
 1.40791317e-10
 1.40791317e-10
 1.40791317e-10
 1.40791317e-10
 1.40791317e-10
 1.40791317e-10
 8.08454886e-11
 8.08454886e-11
 8.08454886e-11
 8.08454886e-11
 8.08454886e-11
 8.08454886e-11
 8.08454886e-11
 8.08454886e-11
 8.08454886e-11
 8.08454886e-11
 8.08454886e-11
 8.08454886e-11
 1.09010754e-10
 1.09010754e-10
 1.09010754e-10
 1.09010754e-10
 8.95239420e-11
 8.95239420e-11
 8.95239420e-11
 7.54191524e-11
 7.54191524e-11
 7.54191524e-11
 6.50212194e-11
 6.50212194e-11
 4.30045786e-11
 4.30045786e-11
 4.30045786e-11