/*--------------------------------*- C++ -*----------------------------------*\
| =========                 |                                                 |
| \\      /  F ield        | OpenFOAM: The Open Source CFD Toolbox           |
|  \\    /   O peration    | Version:  7                                     |
|   \\  /    A nd          | Web:      http://www.OpenFOAM.com               |
|    \\/     M anipulation |                                                 |
\*---------------------------------------------------------------------------*/

FoamFile
{
    version     2.0;
    format      ascii;
    class       dictionary;
    object      Y_H2O_table;
}

Y_H2O_table
2
(
101
(
1
(
101
(
 3.20762030e-05
 3.20762030e-05
 3.20762030e-05
 3.20762030e-05
 3.20762030e-05
 3.20762030e-05
 3.20762030e-05
 3.20762030e-05
 3.20762030e-05
 3.20762030e-05
 3.20762030e-05
 3.20762030e-05
 3.20762030e-05
 3.20762030e-05
 3.20762030e-05
 3.20762030e-05
 3.20762030e-05
 3.20762030e-05
 3.20762030e-05
 3.20762030e-05
 3.20762030e-05
 3.20762030e-05
 3.20762030e-05
 3.20762030e-05
 3.20762030e-05
 3.20762030e-05
 3.20762030e-05
 3.20762030e-05
 3.20762030e-05
 3.20762030e-05
 3.20762030e-05
 3.20762030e-05
 3.20762030e-05
 3.20762030e-05
 3.20762030e-05
 3.20762030e-05
 3.20762030e-05
 3.20762030e-05
 3.20762030e-05
 3.20762030e-05
 3.20762030e-05
 3.20762030e-05
 3.20762030e-05
 3.20762030e-05
 3.20762030e-05
 3.32028109e-02
 3.32028109e-02
 2.58333384e-02
 2.58333384e-02
 2.58333384e-02
 2.58333384e-02
 2.58333384e-02
 2.58333384e-02
 2.58333384e-02
 2.58333384e-02
 2.58333384e-02
 2.58333384e-02
 2.58333384e-02
 2.58333384e-02
 2.58333384e-02
 2.58333384e-02
 2.58333384e-02
 2.58333384e-02
 2.01569119e-02
 2.01569119e-02
 2.01569119e-02
 2.01569119e-02
 2.01569119e-02
 2.01569119e-02
 2.01569119e-02
 2.01569119e-02
 2.01569119e-02
 2.01569119e-02
 2.01569119e-02
 2.01569119e-02
 1.25166398e-02
 1.25166398e-02
 1.25166398e-02
 1.25166398e-02
 1.25166398e-02
 1.25166398e-02
 1.25166398e-02
 8.84473360e-03
 8.84473360e-03
 8.84473360e-03
 8.84473360e-03
 8.84473360e-03
 8.84473360e-03
 5.25650142e-03
 5.25650142e-03
 5.25650142e-03
 5.25650142e-03
 5.25650142e-03
 5.25650142e-03
 5.25650142e-03
 1.26529237e-03
 1.26529237e-03
 1.26529237e-03
 1.26529237e-03
 1.26529237e-03
 1.71285815e-05
)
)
1
(
101
(
 1.33868144e-03
 1.33868144e-03
 1.33868144e-03
 1.33868144e-03
 1.33868144e-03
 1.33868144e-03
 1.33868144e-03
 1.33868144e-03
 1.33868144e-03
 1.33868144e-03
 1.33868144e-03
 1.33868144e-03
 1.33868144e-03
 1.33868144e-03
 1.33868144e-03
 1.33868144e-03
 1.33868144e-03
 1.33868144e-03
 1.33868144e-03
 1.33868144e-03
 1.33868144e-03
 1.33868144e-03
 1.33868144e-03
 1.33868144e-03
 1.33868144e-03
 1.33868144e-03
 1.33868144e-03
 1.33868144e-03
 1.33868144e-03
 1.33868144e-03
 1.33868144e-03
 1.33868144e-03
 1.33868144e-03
 1.33868144e-03
 1.33868144e-03
 1.33868144e-03
 1.33868144e-03
 1.33868144e-03
 1.33868144e-03
 1.33868144e-03
 1.33868144e-03
 1.33868144e-03
 1.33868144e-03
 1.33868144e-03
 1.33868144e-03
 3.32028109e-02
 3.32028109e-02
 3.32028109e-02
 2.58333384e-02
 2.58333384e-02
 2.58333384e-02
 2.58333384e-02
 2.58333384e-02
 2.58333384e-02
 2.58333384e-02
 2.58333384e-02
 2.58333384e-02
 2.58333384e-02
 2.58333384e-02
 2.58333384e-02
 2.58333384e-02
 2.58333384e-02
 2.58333384e-02
 2.58333384e-02
 2.58333384e-02
 2.01569119e-02
 2.01569119e-02
 2.01569119e-02
 2.01569119e-02
 2.01569119e-02
 2.01569119e-02
 2.01569119e-02
 2.01569119e-02
 2.01569119e-02
 2.01569119e-02
 2.01569119e-02
 2.01569119e-02
 1.25166398e-02
 1.25166398e-02
 1.25166398e-02
 1.25166398e-02
 1.25166398e-02
 1.25166398e-02
 8.84473360e-03
 8.84473360e-03
 8.84473360e-03
 8.84473360e-03
 8.84473360e-03
 8.84473360e-03
 8.84473360e-03
 5.25650142e-03
 5.25650142e-03
 5.25650142e-03
 5.25650142e-03
 5.25650142e-03
 5.25650142e-03
 3.52778390e-03
 1.26529237e-03
 1.26529237e-03
 1.26529237e-03
 6.95719416e-04
)
)
1
(
101
(
 2.86373794e-03
 2.86373794e-03
 2.86373794e-03
 2.86373794e-03
 2.86373794e-03
 2.86373794e-03
 2.86373794e-03
 2.86373794e-03
 2.86373794e-03
 2.86373794e-03
 2.86373794e-03
 2.86373794e-03
 2.86373794e-03
 2.86373794e-03
 2.86373794e-03
 2.86373794e-03
 2.86373794e-03
 2.86373794e-03
 2.86373794e-03
 2.86373794e-03
 2.86373794e-03
 2.86373794e-03
 2.86373794e-03
 2.86373794e-03
 2.86373794e-03
 2.86373794e-03
 2.86373794e-03
 2.86373794e-03
 2.86373794e-03
 2.86373794e-03
 2.86373794e-03
 2.86373794e-03
 2.86373794e-03
 2.86373794e-03
 2.86373794e-03
 2.86373794e-03
 2.86373794e-03
 2.86373794e-03
 2.86373794e-03
 2.86373794e-03
 2.86373794e-03
 2.86373794e-03
 2.86373794e-03
 2.86373794e-03
 3.32028109e-02
 3.32028109e-02
 3.32028109e-02
 3.32028109e-02
 3.32028109e-02
 3.32028109e-02
 2.58333384e-02
 2.58333384e-02
 2.58333384e-02
 2.58333384e-02
 2.58333384e-02
 2.58333384e-02
 2.58333384e-02
 2.58333384e-02
 2.58333384e-02
 2.58333384e-02
 2.58333384e-02
 2.58333384e-02
 2.58333384e-02
 2.58333384e-02
 2.58333384e-02
 2.58333384e-02
 2.01569119e-02
 2.01569119e-02
 2.01569119e-02
 2.01569119e-02
 2.01569119e-02
 2.01569119e-02
 2.01569119e-02
 2.01569119e-02
 2.01569119e-02
 2.01569119e-02
 2.01569119e-02
 2.01569119e-02
 1.25166398e-02
 1.25166398e-02
 1.25166398e-02
 1.25166398e-02
 1.25166398e-02
 1.25166398e-02
 1.25166398e-02
 8.84473360e-03
 8.84473360e-03
 8.84473360e-03
 8.84473360e-03
 8.84473360e-03
 8.84473360e-03
 5.25650142e-03
 5.25650142e-03
 5.25650142e-03
 5.25650142e-03
 5.25650142e-03
 5.25650142e-03
 3.52778390e-03
 3.52778390e-03
 2.09208622e-03
 2.09208622e-03
)
)
1
(
101
(
 4.34193665e-03
 4.34193665e-03
 4.34193665e-03
 4.34193665e-03
 4.34193665e-03
 4.34193665e-03
 4.34193665e-03
 4.34193665e-03
 4.34193665e-03
 4.34193665e-03
 4.34193665e-03
 4.34193665e-03
 4.34193665e-03
 4.34193665e-03
 4.34193665e-03
 4.34193665e-03
 4.34193665e-03
 4.34193665e-03
 4.34193665e-03
 4.34193665e-03
 4.34193665e-03
 4.34193665e-03
 4.34193665e-03
 4.34193665e-03
 4.34193665e-03
 4.34193665e-03
 4.34193665e-03
 4.34193665e-03
 4.34193665e-03
 4.34193665e-03
 4.34193665e-03
 4.34193665e-03
 4.34193665e-03
 4.34193665e-03
 4.34193665e-03
 4.34193665e-03
 4.34193665e-03
 4.34193665e-03
 4.34193665e-03
 4.34193665e-03
 4.34193665e-03
 4.34193665e-03
 4.34193665e-03
 4.34193665e-03
 4.17223461e-02
 3.32028109e-02
 3.32028109e-02
 3.32028109e-02
 3.32028109e-02
 3.32028109e-02
 3.32028109e-02
 2.58333384e-02
 2.58333384e-02
 2.58333384e-02
 2.58333384e-02
 2.58333384e-02
 2.58333384e-02
 2.58333384e-02
 2.58333384e-02
 2.58333384e-02
 2.58333384e-02
 2.58333384e-02
 2.58333384e-02
 2.58333384e-02
 2.58333384e-02
 2.58333384e-02
 2.58333384e-02
 2.01569119e-02
 2.01569119e-02
 2.01569119e-02
 2.01569119e-02
 2.01569119e-02
 2.01569119e-02
 2.01569119e-02
 2.01569119e-02
 2.01569119e-02
 2.01569119e-02
 2.01569119e-02
 2.01569119e-02
 1.62758436e-02
 1.25166398e-02
 1.25166398e-02
 1.25166398e-02
 1.25166398e-02
 1.25166398e-02
 1.25166398e-02
 8.84473360e-03
 8.84473360e-03
 8.84473360e-03
 8.84473360e-03
 8.84473360e-03
 8.84473360e-03
 8.84473360e-03
 5.25650142e-03
 5.25650142e-03
 5.25650142e-03
 5.25650142e-03
 5.25650142e-03
 3.52778390e-03
 2.86337920e-03
 2.86337920e-03
)
)
1
(
101
(
 5.78411909e-03
 5.78411909e-03
 5.78411909e-03
 5.78411909e-03
 5.78411909e-03
 5.78411909e-03
 5.78411909e-03
 5.78411909e-03
 5.78411909e-03
 5.78411909e-03
 5.78411909e-03
 5.78411909e-03
 5.78411909e-03
 5.78411909e-03
 5.78411909e-03
 5.78411909e-03
 5.78411909e-03
 5.78411909e-03
 5.78411909e-03
 5.78411909e-03
 5.78411909e-03
 5.78411909e-03
 5.78411909e-03
 5.78411909e-03
 5.78411909e-03
 5.78411909e-03
 5.78411909e-03
 5.78411909e-03
 5.78411909e-03
 5.78411909e-03
 5.78411909e-03
 5.78411909e-03
 5.78411909e-03
 5.78411909e-03
 5.78411909e-03
 5.78411909e-03
 5.78411909e-03
 5.78411909e-03
 5.78411909e-03
 5.78411909e-03
 5.78411909e-03
 5.78411909e-03
 5.78411909e-03
 5.78411909e-03
 4.17223461e-02
 4.17223461e-02
 4.17223461e-02
 3.32028109e-02
 3.32028109e-02
 3.32028109e-02
 3.32028109e-02
 3.32028109e-02
 3.32028109e-02
 2.58333384e-02
 2.58333384e-02
 2.58333384e-02
 2.58333384e-02
 2.58333384e-02
 2.58333384e-02
 2.58333384e-02
 2.58333384e-02
 2.58333384e-02
 2.58333384e-02
 2.58333384e-02
 2.58333384e-02
 2.58333384e-02
 2.58333384e-02
 2.58333384e-02
 2.01569119e-02
 2.01569119e-02
 2.01569119e-02
 2.01569119e-02
 2.01569119e-02
 2.01569119e-02
 2.01569119e-02
 2.01569119e-02
 2.01569119e-02
 2.01569119e-02
 2.01569119e-02
 2.01569119e-02
 1.62758436e-02
 1.25166398e-02
 1.25166398e-02
 1.25166398e-02
 1.25166398e-02
 1.25166398e-02
 1.25166398e-02
 1.25166398e-02
 8.84473360e-03
 8.84473360e-03
 8.84473360e-03
 8.84473360e-03
 8.84473360e-03
 8.84473360e-03
 7.30752674e-03
 5.25650142e-03
 5.25650142e-03
 5.25650142e-03
 4.44494249e-03
 4.44494249e-03
 2.86337920e-03
)
)
1
(
101
(
 7.17078467e-03
 7.17078467e-03
 7.17078467e-03
 7.17078467e-03
 7.17078467e-03
 7.17078467e-03
 7.17078467e-03
 7.17078467e-03
 7.17078467e-03
 7.17078467e-03
 7.17078467e-03
 7.17078467e-03
 7.17078467e-03
 7.17078467e-03
 7.17078467e-03
 7.17078467e-03
 7.17078467e-03
 7.17078467e-03
 7.17078467e-03
 7.17078467e-03
 7.17078467e-03
 7.17078467e-03
 7.17078467e-03
 7.17078467e-03
 7.17078467e-03
 7.17078467e-03
 7.17078467e-03
 7.17078467e-03
 7.17078467e-03
 7.17078467e-03
 7.17078467e-03
 7.17078467e-03
 7.17078467e-03
 7.17078467e-03
 7.17078467e-03
 7.17078467e-03
 7.17078467e-03
 7.17078467e-03
 7.17078467e-03
 7.17078467e-03
 7.17078467e-03
 7.17078467e-03
 1.96038831e-02
 4.17223461e-02
 4.17223461e-02
 4.17223461e-02
 4.17223461e-02
 4.17223461e-02
 3.32028109e-02
 3.32028109e-02
 3.32028109e-02
 3.32028109e-02
 3.32028109e-02
 3.32028109e-02
 2.58333384e-02
 2.58333384e-02
 2.58333384e-02
 2.58333384e-02
 2.58333384e-02
 2.58333384e-02
 2.58333384e-02
 2.58333384e-02
 2.58333384e-02
 2.58333384e-02
 2.58333384e-02
 2.58333384e-02
 2.58333384e-02
 2.58333384e-02
 2.58333384e-02
 2.58333384e-02
 2.01569119e-02
 2.01569119e-02
 2.01569119e-02
 2.01569119e-02
 2.01569119e-02
 2.01569119e-02
 2.01569119e-02
 2.01569119e-02
 2.01569119e-02
 2.01569119e-02
 2.01569119e-02
 1.62758436e-02
 1.62758436e-02
 1.25166398e-02
 1.25166398e-02
 1.25166398e-02
 1.25166398e-02
 1.25166398e-02
 1.25166398e-02
 8.84473360e-03
 8.84473360e-03
 8.84473360e-03
 8.84473360e-03
 8.84473360e-03
 8.84473360e-03
 7.30752674e-03
 7.30752674e-03
 5.77304002e-03
 5.77304002e-03
 4.44494249e-03
 4.44494249e-03
)
)
1
(
101
(
 8.57885209e-03
 8.57885209e-03
 8.57885209e-03
 8.57885209e-03
 8.57885209e-03
 8.57885209e-03
 8.57885209e-03
 8.57885209e-03
 8.57885209e-03
 8.57885209e-03
 8.57885209e-03
 8.57885209e-03
 8.57885209e-03
 8.57885209e-03
 8.57885209e-03
 8.57885209e-03
 8.57885209e-03
 8.57885209e-03
 8.57885209e-03
 8.57885209e-03
 8.57885209e-03
 8.57885209e-03
 8.57885209e-03
 8.57885209e-03
 8.57885209e-03
 8.57885209e-03
 8.57885209e-03
 8.57885209e-03
 8.57885209e-03
 8.57885209e-03
 8.57885209e-03
 8.57885209e-03
 8.57885209e-03
 1.96038831e-02
 1.96038831e-02
 1.96038831e-02
 1.96038831e-02
 1.96038831e-02
 1.96038831e-02
 1.96038831e-02
 1.96038831e-02
 1.96038831e-02
 1.96038831e-02
 4.17223461e-02
 4.17223461e-02
 4.17223461e-02
 4.17223461e-02
 4.17223461e-02
 4.17223461e-02
 3.32028109e-02
 3.32028109e-02
 3.32028109e-02
 3.32028109e-02
 3.32028109e-02
 3.32028109e-02
 3.32028109e-02
 2.58333384e-02
 2.58333384e-02
 2.58333384e-02
 2.58333384e-02
 2.58333384e-02
 2.58333384e-02
 2.58333384e-02
 2.58333384e-02
 2.58333384e-02
 2.58333384e-02
 2.58333384e-02
 2.58333384e-02
 2.58333384e-02
 2.58333384e-02
 2.58333384e-02
 2.01569119e-02
 2.01569119e-02
 2.01569119e-02
 2.01569119e-02
 2.01569119e-02
 2.01569119e-02
 2.01569119e-02
 2.01569119e-02
 2.01569119e-02
 2.01569119e-02
 2.01569119e-02
 1.62758436e-02
 1.62758436e-02
 1.25166398e-02
 1.25166398e-02
 1.25166398e-02
 1.25166398e-02
 1.25166398e-02
 1.25166398e-02
 1.25166398e-02
 8.84473360e-03
 8.84473360e-03
 8.84473360e-03
 8.84473360e-03
 8.84473360e-03
 7.30752674e-03
 7.30752674e-03
 5.77304002e-03
 5.77304002e-03
 4.44494249e-03
)
)
1
(
101
(
 1.00007485e-02
 1.00007485e-02
 1.00007485e-02
 1.00007485e-02
 1.00007485e-02
 1.00007485e-02
 1.00007485e-02
 1.00007485e-02
 1.00007485e-02
 1.00007485e-02
 1.00007485e-02
 1.00007485e-02
 1.00007485e-02
 1.00007485e-02
 1.00007485e-02
 1.00007485e-02
 1.00007485e-02
 1.00007485e-02
 1.00007485e-02
 1.00007485e-02
 1.00007485e-02
 1.00007485e-02
 1.00007485e-02
 1.00007485e-02
 1.00007485e-02
 1.00007485e-02
 1.96038831e-02
 1.96038831e-02
 1.96038831e-02
 1.96038831e-02
 1.96038831e-02
 1.96038831e-02
 1.96038831e-02
 1.96038831e-02
 1.96038831e-02
 1.96038831e-02
 1.96038831e-02
 1.96038831e-02
 1.96038831e-02
 1.96038831e-02
 1.96038831e-02
 1.96038831e-02
 1.96038831e-02
 4.17223461e-02
 4.17223461e-02
 4.17223461e-02
 4.17223461e-02
 4.17223461e-02
 4.17223461e-02
 4.17223461e-02
 3.32028109e-02
 3.32028109e-02
 3.32028109e-02
 3.32028109e-02
 3.32028109e-02
 3.32028109e-02
 3.32028109e-02
 2.58333384e-02
 2.58333384e-02
 2.58333384e-02
 2.58333384e-02
 2.58333384e-02
 2.58333384e-02
 2.58333384e-02
 2.58333384e-02
 2.58333384e-02
 2.58333384e-02
 2.58333384e-02
 2.58333384e-02
 2.58333384e-02
 2.58333384e-02
 2.58333384e-02
 2.01569119e-02
 2.01569119e-02
 2.01569119e-02
 2.01569119e-02
 2.01569119e-02
 2.01569119e-02
 2.01569119e-02
 2.01569119e-02
 2.01569119e-02
 2.01569119e-02
 2.01569119e-02
 1.62758436e-02
 1.62758436e-02
 1.62758436e-02
 1.25166398e-02
 1.25166398e-02
 1.25166398e-02
 1.25166398e-02
 1.25166398e-02
 1.25166398e-02
 1.09471209e-02
 8.84473360e-03
 8.84473360e-03
 8.84473360e-03
 8.09878724e-03
 8.09878724e-03
 8.09878724e-03
 5.77304002e-03
 5.77304002e-03
)
)
1
(
101
(
 1.14077564e-02
 1.14077564e-02
 1.14077564e-02
 1.14077564e-02
 1.14077564e-02
 1.14077564e-02
 1.14077564e-02
 1.14077564e-02
 1.14077564e-02
 1.14077564e-02
 1.14077564e-02
 1.14077564e-02
 1.14077564e-02
 1.14077564e-02
 1.14077564e-02
 1.14077564e-02
 1.14077564e-02
 1.14077564e-02
 1.14077564e-02
 1.96038831e-02
 1.96038831e-02
 1.96038831e-02
 1.96038831e-02
 1.96038831e-02
 1.96038831e-02
 1.96038831e-02
 1.96038831e-02
 1.96038831e-02
 1.96038831e-02
 1.96038831e-02
 1.96038831e-02
 1.96038831e-02
 1.96038831e-02
 1.96038831e-02
 1.96038831e-02
 1.96038831e-02
 1.96038831e-02
 1.96038831e-02
 1.96038831e-02
 1.96038831e-02
 1.96038831e-02
 1.96038831e-02
 4.17223461e-02
 4.17223461e-02
 4.17223461e-02
 4.17223461e-02
 4.17223461e-02
 4.17223461e-02
 4.17223461e-02
 4.17223461e-02
 4.17223461e-02
 3.32028109e-02
 3.32028109e-02
 3.32028109e-02
 3.32028109e-02
 3.32028109e-02
 3.32028109e-02
 3.32028109e-02
 3.32028109e-02
 2.58333384e-02
 2.58333384e-02
 2.58333384e-02
 2.58333384e-02
 2.58333384e-02
 2.58333384e-02
 2.58333384e-02
 2.58333384e-02
 2.58333384e-02
 2.58333384e-02
 2.58333384e-02
 2.58333384e-02
 2.58333384e-02
 2.58333384e-02
 2.01569119e-02
 2.01569119e-02
 2.01569119e-02
 2.01569119e-02
 2.01569119e-02
 2.01569119e-02
 2.01569119e-02
 2.01569119e-02
 2.01569119e-02
 2.01569119e-02
 2.01569119e-02
 1.62758436e-02
 1.62758436e-02
 1.62758436e-02
 1.25166398e-02
 1.25166398e-02
 1.25166398e-02
 1.25166398e-02
 1.25166398e-02
 1.25166398e-02
 1.09471209e-02
 1.09471209e-02
 9.66608364e-03
 9.66608364e-03
 8.09878724e-03
 8.09878724e-03
 8.09878724e-03
 8.09878724e-03
)
)
1
(
101
(
 1.27606087e-02
 1.27606087e-02
 1.27606087e-02
 1.27606087e-02
 1.27606087e-02
 1.27606087e-02
 1.27606087e-02
 1.27606087e-02
 1.27606087e-02
 1.27606087e-02
 1.27606087e-02
 1.27606087e-02
 1.27606087e-02
 1.27606087e-02
 1.96038831e-02
 1.96038831e-02
 1.96038831e-02
 1.96038831e-02
 1.96038831e-02
 1.96038831e-02
 1.96038831e-02
 1.96038831e-02
 1.96038831e-02
 1.96038831e-02
 1.96038831e-02
 1.96038831e-02
 1.96038831e-02
 1.96038831e-02
 1.96038831e-02
 1.96038831e-02
 1.96038831e-02
 1.96038831e-02
 1.96038831e-02
 1.96038831e-02
 1.96038831e-02
 1.96038831e-02
 1.96038831e-02
 1.96038831e-02
 1.96038831e-02
 1.96038831e-02
 1.96038831e-02
 1.96038831e-02
 4.17223461e-02
 4.17223461e-02
 4.17223461e-02
 4.17223461e-02
 4.17223461e-02
 4.17223461e-02
 4.17223461e-02
 4.17223461e-02
 4.17223461e-02
 4.17223461e-02
 3.32028109e-02
 3.32028109e-02
 3.32028109e-02
 3.32028109e-02
 3.32028109e-02
 3.32028109e-02
 3.32028109e-02
 3.32028109e-02
 2.58333384e-02
 2.58333384e-02
 2.58333384e-02
 2.58333384e-02
 2.58333384e-02
 2.58333384e-02
 2.58333384e-02
 2.58333384e-02
 2.58333384e-02
 2.58333384e-02
 2.58333384e-02
 2.58333384e-02
 2.58333384e-02
 2.58333384e-02
 2.58333384e-02
 2.01569119e-02
 2.01569119e-02
 2.01569119e-02
 2.01569119e-02
 2.01569119e-02
 2.01569119e-02
 2.01569119e-02
 2.01569119e-02
 2.01569119e-02
 2.01569119e-02
 1.62758436e-02
 1.62758436e-02
 1.62758436e-02
 1.62758436e-02
 1.25166398e-02
 1.25166398e-02
 1.25166398e-02
 1.25166398e-02
 1.25166398e-02
 1.09471209e-02
 1.09471209e-02
 9.66608364e-03
 9.66608364e-03
 8.09878724e-03
 8.09878724e-03
 8.09878724e-03
)
)
1
(
101
(
 1.42258064e-02
 1.42258064e-02
 1.42258064e-02
 1.42258064e-02
 1.42258064e-02
 1.42258064e-02
 1.42258064e-02
 1.42258064e-02
 1.42258064e-02
 1.96038831e-02
 1.96038831e-02
 1.96038831e-02
 1.96038831e-02
 1.96038831e-02
 1.96038831e-02
 1.96038831e-02
 1.96038831e-02
 1.96038831e-02
 1.96038831e-02
 1.96038831e-02
 1.96038831e-02
 1.96038831e-02
 1.96038831e-02
 1.96038831e-02
 1.96038831e-02
 1.96038831e-02
 1.96038831e-02
 1.96038831e-02
 1.96038831e-02
 1.96038831e-02
 1.96038831e-02
 1.96038831e-02
 1.96038831e-02
 1.96038831e-02
 1.96038831e-02
 1.96038831e-02
 1.96038831e-02
 1.96038831e-02
 1.96038831e-02
 1.96038831e-02
 1.96038831e-02
 1.96038831e-02
 4.17223461e-02
 4.17223461e-02
 4.17223461e-02
 4.17223461e-02
 4.17223461e-02
 4.17223461e-02
 4.17223461e-02
 4.17223461e-02
 4.17223461e-02
 4.17223461e-02
 4.17223461e-02
 4.17223461e-02
 3.32028109e-02
 3.32028109e-02
 3.32028109e-02
 3.32028109e-02
 3.32028109e-02
 3.32028109e-02
 3.32028109e-02
 3.32028109e-02
 2.58333384e-02
 2.58333384e-02
 2.58333384e-02
 2.58333384e-02
 2.58333384e-02
 2.58333384e-02
 2.58333384e-02
 2.58333384e-02
 2.58333384e-02
 2.58333384e-02
 2.58333384e-02
 2.58333384e-02
 2.58333384e-02
 2.58333384e-02
 2.01569119e-02
 2.01569119e-02
 2.01569119e-02
 2.01569119e-02
 2.01569119e-02
 2.01569119e-02
 2.01569119e-02
 2.01569119e-02
 2.01569119e-02
 2.01569119e-02
 1.62758436e-02
 1.62758436e-02
 1.62758436e-02
 1.62758436e-02
 1.45098121e-02
 1.25166398e-02
 1.25166398e-02
 1.25166398e-02
 1.25166398e-02
 1.09471209e-02
 1.09471209e-02
 9.66608364e-03
 9.66608364e-03
 8.09878724e-03
 8.09878724e-03
)
)
1
(
101
(
 1.55897634e-02
 1.55897634e-02
 1.55897634e-02
 1.55897634e-02
 1.55897634e-02
 1.55897634e-02
 1.96038831e-02
 1.96038831e-02
 1.96038831e-02
 1.96038831e-02
 1.96038831e-02
 1.96038831e-02
 1.96038831e-02
 1.96038831e-02
 1.96038831e-02
 1.96038831e-02
 1.96038831e-02
 1.96038831e-02
 1.96038831e-02
 1.96038831e-02
 1.96038831e-02
 1.96038831e-02
 1.96038831e-02
 1.96038831e-02
 1.96038831e-02
 1.96038831e-02
 1.96038831e-02
 1.96038831e-02
 1.96038831e-02
 1.96038831e-02
 1.96038831e-02
 1.96038831e-02
 1.96038831e-02
 1.96038831e-02
 1.96038831e-02
 1.96038831e-02
 1.96038831e-02
 1.96038831e-02
 1.96038831e-02
 1.96038831e-02
 1.96038831e-02
 1.96038831e-02
 4.17223461e-02
 4.17223461e-02
 4.17223461e-02
 4.17223461e-02
 4.17223461e-02
 4.17223461e-02
 4.17223461e-02
 4.17223461e-02
 4.17223461e-02
 4.17223461e-02
 4.17223461e-02
 4.17223461e-02
 4.17223461e-02
 3.32028109e-02
 3.32028109e-02
 3.32028109e-02
 3.32028109e-02
 3.32028109e-02
 3.32028109e-02
 3.32028109e-02
 3.32028109e-02
 2.58333384e-02
 2.58333384e-02
 2.58333384e-02
 2.58333384e-02
 2.58333384e-02
 2.58333384e-02
 2.58333384e-02
 2.58333384e-02
 2.58333384e-02
 2.58333384e-02
 2.58333384e-02
 2.58333384e-02
 2.58333384e-02
 2.58333384e-02
 2.01569119e-02
 2.01569119e-02
 2.01569119e-02
 2.01569119e-02
 2.01569119e-02
 2.01569119e-02
 2.01569119e-02
 2.01569119e-02
 2.01569119e-02
 2.01569119e-02
 1.62758436e-02
 1.62758436e-02
 1.62758436e-02
 1.62758436e-02
 1.45098121e-02
 1.45098121e-02
 1.32085479e-02
 1.32085479e-02
 1.32085479e-02
 1.09471209e-02
 1.09471209e-02
 9.66608364e-03
 9.66608364e-03
 8.09878724e-03
)
)
1
(
101
(
 1.69530212e-02
 1.69530212e-02
 1.69530212e-02
 1.96038831e-02
 1.96038831e-02
 1.96038831e-02
 1.96038831e-02
 1.96038831e-02
 1.96038831e-02
 1.96038831e-02
 1.96038831e-02
 1.96038831e-02
 1.96038831e-02
 1.96038831e-02
 1.96038831e-02
 1.96038831e-02
 1.96038831e-02
 1.96038831e-02
 1.96038831e-02
 1.96038831e-02
 1.96038831e-02
 1.96038831e-02
 1.96038831e-02
 1.96038831e-02
 1.96038831e-02
 1.96038831e-02
 1.96038831e-02
 1.96038831e-02
 1.96038831e-02
 1.96038831e-02
 1.96038831e-02
 1.96038831e-02
 1.96038831e-02
 1.96038831e-02
 1.96038831e-02
 1.96038831e-02
 1.96038831e-02
 1.96038831e-02
 1.96038831e-02
 1.96038831e-02
 1.96038831e-02
 4.99631431e-02
 4.17223461e-02
 4.17223461e-02
 4.17223461e-02
 4.17223461e-02
 4.17223461e-02
 4.17223461e-02
 4.17223461e-02
 4.17223461e-02
 4.17223461e-02
 4.17223461e-02
 4.17223461e-02
 4.17223461e-02
 4.17223461e-02
 4.17223461e-02
 3.32028109e-02
 3.32028109e-02
 3.32028109e-02
 3.32028109e-02
 3.32028109e-02
 3.32028109e-02
 3.32028109e-02
 3.32028109e-02
 3.32028109e-02
 2.58333384e-02
 2.58333384e-02
 2.58333384e-02
 2.58333384e-02
 2.58333384e-02
 2.58333384e-02
 2.58333384e-02
 2.58333384e-02
 2.58333384e-02
 2.58333384e-02
 2.58333384e-02
 2.58333384e-02
 2.58333384e-02
 2.01569119e-02
 2.01569119e-02
 2.01569119e-02
 2.01569119e-02
 2.01569119e-02
 2.01569119e-02
 2.01569119e-02
 2.01569119e-02
 2.01569119e-02
 2.01569119e-02
 1.62758436e-02
 1.62758436e-02
 1.62758436e-02
 1.62758436e-02
 1.45098121e-02
 1.45098121e-02
 1.32085479e-02
 1.32085479e-02
 1.32085479e-02
 1.32085479e-02
 1.09471209e-02
 9.66608364e-03
 9.66608364e-03
)
)
1
(
101
(
 1.82337048e-02
 1.82337048e-02
 1.96038831e-02
 1.96038831e-02
 1.96038831e-02
 1.96038831e-02
 1.96038831e-02
 1.96038831e-02
 1.96038831e-02
 1.96038831e-02
 1.96038831e-02
 1.96038831e-02
 1.96038831e-02
 1.96038831e-02
 1.96038831e-02
 1.96038831e-02
 1.96038831e-02
 1.96038831e-02
 1.96038831e-02
 1.96038831e-02
 1.96038831e-02
 1.96038831e-02
 1.96038831e-02
 1.96038831e-02
 1.96038831e-02
 1.96038831e-02
 1.96038831e-02
 1.96038831e-02
 1.96038831e-02
 1.96038831e-02
 1.96038831e-02
 1.96038831e-02
 1.96038831e-02
 1.96038831e-02
 1.96038831e-02
 1.96038831e-02
 1.96038831e-02
 1.96038831e-02
 1.96038831e-02
 1.96038831e-02
 1.96038831e-02
 4.99631431e-02
 4.99631431e-02
 4.17223461e-02
 4.17223461e-02
 4.17223461e-02
 4.17223461e-02
 4.17223461e-02
 4.17223461e-02
 4.17223461e-02
 4.17223461e-02
 4.17223461e-02
 4.17223461e-02
 4.17223461e-02
 4.17223461e-02
 4.17223461e-02
 4.17223461e-02
 3.32028109e-02
 3.32028109e-02
 3.32028109e-02
 3.32028109e-02
 3.32028109e-02
 3.32028109e-02
 3.32028109e-02
 3.32028109e-02
 3.32028109e-02
 2.58333384e-02
 2.58333384e-02
 2.58333384e-02
 2.58333384e-02
 2.58333384e-02
 2.58333384e-02
 2.58333384e-02
 2.58333384e-02
 2.58333384e-02
 2.58333384e-02
 2.58333384e-02
 2.58333384e-02
 2.58333384e-02
 2.58333384e-02
 2.01569119e-02
 2.01569119e-02
 2.01569119e-02
 2.01569119e-02
 2.01569119e-02
 2.01569119e-02
 2.01569119e-02
 2.01569119e-02
 1.83373023e-02
 1.62758436e-02
 1.62758436e-02
 1.62758436e-02
 1.57169344e-02
 1.57169344e-02
 1.57169344e-02
 1.32085479e-02
 1.32085479e-02
 1.32085479e-02
 1.32085479e-02
 1.32085479e-02
 9.66608364e-03
)
)
1
(
101
(
 1.95593896e-02
 1.96038831e-02
 1.96038831e-02
 1.96038831e-02
 1.96038831e-02
 1.96038831e-02
 1.96038831e-02
 1.96038831e-02
 1.96038831e-02
 1.96038831e-02
 1.96038831e-02
 1.96038831e-02
 1.96038831e-02
 1.96038831e-02
 1.96038831e-02
 1.96038831e-02
 1.96038831e-02
 1.96038831e-02
 1.96038831e-02
 1.96038831e-02
 1.96038831e-02
 1.96038831e-02
 1.96038831e-02
 1.96038831e-02
 1.96038831e-02
 1.96038831e-02
 1.96038831e-02
 1.96038831e-02
 1.96038831e-02
 1.96038831e-02
 1.96038831e-02
 1.96038831e-02
 1.96038831e-02
 1.96038831e-02
 1.96038831e-02
 1.96038831e-02
 1.96038831e-02
 1.96038831e-02
 1.96038831e-02
 1.96038831e-02
 4.99631431e-02
 4.99631431e-02
 4.99631431e-02
 4.99631431e-02
 4.17223461e-02
 4.17223461e-02
 4.17223461e-02
 4.17223461e-02
 4.17223461e-02
 4.17223461e-02
 4.17223461e-02
 4.17223461e-02
 4.17223461e-02
 4.17223461e-02
 4.17223461e-02
 4.17223461e-02
 4.17223461e-02
 4.17223461e-02
 3.32028109e-02
 3.32028109e-02
 3.32028109e-02
 3.32028109e-02
 3.32028109e-02
 3.32028109e-02
 3.32028109e-02
 3.32028109e-02
 3.32028109e-02
 3.32028109e-02
 2.58333384e-02
 2.58333384e-02
 2.58333384e-02
 2.58333384e-02
 2.58333384e-02
 2.58333384e-02
 2.58333384e-02
 2.58333384e-02
 2.58333384e-02
 2.58333384e-02
 2.58333384e-02
 2.58333384e-02
 2.58333384e-02
 2.23841141e-02
 2.01569119e-02
 2.01569119e-02
 2.01569119e-02
 2.01569119e-02
 2.01569119e-02
 2.01569119e-02
 2.01569119e-02
 1.83373023e-02
 1.83373023e-02
 1.69977246e-02
 1.69977246e-02
 1.57169344e-02
 1.57169344e-02
 1.57169344e-02
 1.57169344e-02
 1.32085479e-02
 1.32085479e-02
 1.32085479e-02
 1.32085479e-02
)
)
1
(
101
(
 1.95593896e-02
 2.09380392e-02
 2.09380392e-02
 2.09380392e-02
 2.09380392e-02
 2.09380392e-02
 2.09380392e-02
 2.09380392e-02
 2.09380392e-02
 2.09380392e-02
 2.09380392e-02
 2.09380392e-02
 2.09380392e-02
 2.09380392e-02
 2.09380392e-02
 2.09380392e-02
 2.09380392e-02
 2.09380392e-02
 2.09380392e-02
 2.09380392e-02
 2.09380392e-02
 2.09380392e-02
 2.09380392e-02
 2.09380392e-02
 2.09380392e-02
 2.09380392e-02
 2.09380392e-02
 2.09380392e-02
 2.09380392e-02
 2.09380392e-02
 2.09380392e-02
 2.09380392e-02
 2.09380392e-02
 2.09380392e-02
 2.09380392e-02
 2.09380392e-02
 2.09380392e-02
 2.09380392e-02
 2.09380392e-02
 2.09380392e-02
 4.99631431e-02
 4.99631431e-02
 4.99631431e-02
 4.99631431e-02
 4.99631431e-02
 4.17223461e-02
 4.17223461e-02
 4.17223461e-02
 4.17223461e-02
 4.17223461e-02
 4.17223461e-02
 4.17223461e-02
 4.17223461e-02
 4.17223461e-02
 4.17223461e-02
 4.17223461e-02
 4.17223461e-02
 4.17223461e-02
 4.17223461e-02
 3.32028109e-02
 3.32028109e-02
 3.32028109e-02
 3.32028109e-02
 3.32028109e-02
 3.32028109e-02
 3.32028109e-02
 3.32028109e-02
 3.32028109e-02
 3.32028109e-02
 2.58333384e-02
 2.58333384e-02
 2.58333384e-02
 2.58333384e-02
 2.58333384e-02
 2.58333384e-02
 2.58333384e-02
 2.58333384e-02
 2.58333384e-02
 2.58333384e-02
 2.58333384e-02
 2.58333384e-02
 2.58333384e-02
 2.23841141e-02
 2.23841141e-02
 2.01569119e-02
 2.01569119e-02
 2.01569119e-02
 2.01569119e-02
 2.01569119e-02
 1.83373023e-02
 1.83373023e-02
 1.83373023e-02
 1.69977246e-02
 1.69977246e-02
 1.57169344e-02
 1.57169344e-02
 1.57169344e-02
 1.57169344e-02
 1.57169344e-02
 1.32085479e-02
 1.32085479e-02
)
)
1
(
101
(
 2.23257768e-02
 2.23257768e-02
 2.23257768e-02
 2.23257768e-02
 2.23257768e-02
 2.23257768e-02
 2.23257768e-02
 2.23257768e-02
 2.23257768e-02
 2.23257768e-02
 2.23257768e-02
 2.23257768e-02
 2.23257768e-02
 2.23257768e-02
 2.23257768e-02
 2.23257768e-02
 2.23257768e-02
 2.23257768e-02
 2.23257768e-02
 2.23257768e-02
 2.23257768e-02
 2.23257768e-02
 2.23257768e-02
 2.23257768e-02
 2.23257768e-02
 2.23257768e-02
 2.23257768e-02
 2.23257768e-02
 2.23257768e-02
 2.23257768e-02
 2.23257768e-02
 2.23257768e-02
 2.23257768e-02
 2.23257768e-02
 2.23257768e-02
 2.23257768e-02
 2.23257768e-02
 2.23257768e-02
 2.23257768e-02
 2.23257768e-02
 4.99631431e-02
 4.99631431e-02
 4.99631431e-02
 4.99631431e-02
 4.99631431e-02
 4.99631431e-02
 4.17223461e-02
 4.17223461e-02
 4.17223461e-02
 4.17223461e-02
 4.17223461e-02
 4.17223461e-02
 4.17223461e-02
 4.17223461e-02
 4.17223461e-02
 4.17223461e-02
 4.17223461e-02
 4.17223461e-02
 4.17223461e-02
 4.17223461e-02
 4.17223461e-02
 3.32028109e-02
 3.32028109e-02
 3.32028109e-02
 3.32028109e-02
 3.32028109e-02
 3.32028109e-02
 3.32028109e-02
 3.32028109e-02
 3.32028109e-02
 3.32028109e-02
 2.58333384e-02
 2.58333384e-02
 2.58333384e-02
 2.58333384e-02
 2.58333384e-02
 2.58333384e-02
 2.58333384e-02
 2.58333384e-02
 2.58333384e-02
 2.58333384e-02
 2.58333384e-02
 2.58333384e-02
 2.23841141e-02
 2.23841141e-02
 2.23841141e-02
 2.01569119e-02
 2.01569119e-02
 2.01569119e-02
 2.01569119e-02
 1.83373023e-02
 1.83373023e-02
 1.83373023e-02
 1.69977246e-02
 1.69977246e-02
 1.57169344e-02
 1.57169344e-02
 1.57169344e-02
 1.57169344e-02
 1.57169344e-02
 1.57169344e-02
)
)
1
(
101
(
 2.36397346e-02
 2.36397346e-02
 2.36397346e-02
 2.36397346e-02
 2.36397346e-02
 2.36397346e-02
 2.36397346e-02
 2.36397346e-02
 2.36397346e-02
 2.36397346e-02
 2.36397346e-02
 2.36397346e-02
 2.36397346e-02
 2.36397346e-02
 2.36397346e-02
 2.36397346e-02
 2.36397346e-02
 2.36397346e-02
 2.36397346e-02
 2.36397346e-02
 2.36397346e-02
 2.36397346e-02
 2.36397346e-02
 2.36397346e-02
 2.36397346e-02
 2.36397346e-02
 2.36397346e-02
 2.36397346e-02
 2.36397346e-02
 2.36397346e-02
 2.36397346e-02
 2.36397346e-02
 2.36397346e-02
 2.36397346e-02
 2.36397346e-02
 2.36397346e-02
 2.36397346e-02
 2.36397346e-02
 2.36397346e-02
 4.99631431e-02
 4.99631431e-02
 4.99631431e-02
 4.99631431e-02
 4.99631431e-02
 4.99631431e-02
 4.99631431e-02
 4.99631431e-02
 4.99631431e-02
 4.17223461e-02
 4.17223461e-02
 4.17223461e-02
 4.17223461e-02
 4.17223461e-02
 4.17223461e-02
 4.17223461e-02
 4.17223461e-02
 4.17223461e-02
 4.17223461e-02
 4.17223461e-02
 4.17223461e-02
 4.17223461e-02
 4.17223461e-02
 3.32028109e-02
 3.32028109e-02
 3.32028109e-02
 3.32028109e-02
 3.32028109e-02
 3.32028109e-02
 3.32028109e-02
 3.32028109e-02
 3.32028109e-02
 3.32028109e-02
 2.58333384e-02
 2.58333384e-02
 2.58333384e-02
 2.58333384e-02
 2.58333384e-02
 2.58333384e-02
 2.58333384e-02
 2.58333384e-02
 2.58333384e-02
 2.58333384e-02
 2.58333384e-02
 2.58333384e-02
 2.23841141e-02
 2.23841141e-02
 2.23841141e-02
 2.23841141e-02
 2.12491915e-02
 2.12491915e-02
 2.12491915e-02
 1.83373023e-02
 1.83373023e-02
 1.83373023e-02
 1.69977246e-02
 1.69977246e-02
 1.57169344e-02
 1.57169344e-02
 1.57169344e-02