/*--------------------------------*- C++ -*----------------------------------*\
| =========                 |                                                 |
| \\      /  F ield        | OpenFOAM: The Open Source CFD Toolbox           |
|  \\    /   O peration    | Version:  7                                     |
|   \\  /    A nd          | Web:      http://www.OpenFOAM.com               |
|    \\/     M anipulation |                                                 |
\*---------------------------------------------------------------------------*/

FoamFile
{
    version     2.0;
    format      ascii;
    class       dictionary;
    object      Y_H2O2_table;
}

Y_H2O2_table
2
(
101
(
1
(
101
(
 6.02567846e-09
 6.02567846e-09
 6.02567846e-09
 6.02567846e-09
 6.02567846e-09
 6.02567846e-09
 6.02567846e-09
 6.02567846e-09
 6.02567846e-09
 6.02567846e-09
 6.02567846e-09
 6.02567846e-09
 6.02567846e-09
 6.02567846e-09
 6.02567846e-09
 6.02567846e-09
 6.02567846e-09
 6.02567846e-09
 6.02567846e-09
 6.02567846e-09
 6.02567846e-09
 6.02567846e-09
 6.02567846e-09
 6.02567846e-09
 6.02567846e-09
 6.02567846e-09
 6.02567846e-09
 6.02567846e-09
 6.02567846e-09
 6.02567846e-09
 6.02567846e-09
 6.02567846e-09
 6.02567846e-09
 6.02567846e-09
 6.02567846e-09
 6.02567846e-09
 6.02567846e-09
 6.02567846e-09
 6.02567846e-09
 6.02567846e-09
 6.02567846e-09
 6.02567846e-09
 6.02567846e-09
 6.02567846e-09
 6.02567846e-09
 5.80610513e-09
 5.80610513e-09
 3.13010806e-08
 3.13010806e-08
 3.13010806e-08
 3.13010806e-08
 3.13010806e-08
 3.13010806e-08
 3.13010806e-08
 3.13010806e-08
 3.13010806e-08
 3.13010806e-08
 3.13010806e-08
 3.13010806e-08
 3.13010806e-08
 3.13010806e-08
 3.13010806e-08
 3.13010806e-08
 2.85967088e-08
 2.85967088e-08
 2.85967088e-08
 2.85967088e-08
 2.85967088e-08
 2.85967088e-08
 2.85967088e-08
 2.85967088e-08
 2.85967088e-08
 2.85967088e-08
 2.85967088e-08
 2.85967088e-08
 2.40453599e-09
 2.40453599e-09
 2.40453599e-09
 2.40453599e-09
 2.40453599e-09
 2.40453599e-09
 2.40453599e-09
 2.80241621e-09
 2.80241621e-09
 2.80241621e-09
 2.80241621e-09
 2.80241621e-09
 2.80241621e-09
 2.03379202e-09
 2.03379202e-09
 2.03379202e-09
 2.03379202e-09
 2.03379202e-09
 2.03379202e-09
 2.03379202e-09
 4.92038157e-10
 4.92038157e-10
 4.92038157e-10
 4.92038157e-10
 4.92038157e-10
 6.12988453e-12
)
)
1
(
101
(
 3.09237165e-07
 3.09237165e-07
 3.09237165e-07
 3.09237165e-07
 3.09237165e-07
 3.09237165e-07
 3.09237165e-07
 3.09237165e-07
 3.09237165e-07
 3.09237165e-07
 3.09237165e-07
 3.09237165e-07
 3.09237165e-07
 3.09237165e-07
 3.09237165e-07
 3.09237165e-07
 3.09237165e-07
 3.09237165e-07
 3.09237165e-07
 3.09237165e-07
 3.09237165e-07
 3.09237165e-07
 3.09237165e-07
 3.09237165e-07
 3.09237165e-07
 3.09237165e-07
 3.09237165e-07
 3.09237165e-07
 3.09237165e-07
 3.09237165e-07
 3.09237165e-07
 3.09237165e-07
 3.09237165e-07
 3.09237165e-07
 3.09237165e-07
 3.09237165e-07
 3.09237165e-07
 3.09237165e-07
 3.09237165e-07
 3.09237165e-07
 3.09237165e-07
 3.09237165e-07
 3.09237165e-07
 3.09237165e-07
 3.09237165e-07
 5.80610513e-09
 5.80610513e-09
 5.80610513e-09
 3.13010806e-08
 3.13010806e-08
 3.13010806e-08
 3.13010806e-08
 3.13010806e-08
 3.13010806e-08
 3.13010806e-08
 3.13010806e-08
 3.13010806e-08
 3.13010806e-08
 3.13010806e-08
 3.13010806e-08
 3.13010806e-08
 3.13010806e-08
 3.13010806e-08
 3.13010806e-08
 3.13010806e-08
 2.85967088e-08
 2.85967088e-08
 2.85967088e-08
 2.85967088e-08
 2.85967088e-08
 2.85967088e-08
 2.85967088e-08
 2.85967088e-08
 2.85967088e-08
 2.85967088e-08
 2.85967088e-08
 2.85967088e-08
 2.40453599e-09
 2.40453599e-09
 2.40453599e-09
 2.40453599e-09
 2.40453599e-09
 2.40453599e-09
 2.80241621e-09
 2.80241621e-09
 2.80241621e-09
 2.80241621e-09
 2.80241621e-09
 2.80241621e-09
 2.80241621e-09
 2.03379202e-09
 2.03379202e-09
 2.03379202e-09
 2.03379202e-09
 2.03379202e-09
 2.03379202e-09
 1.13271432e-09
 4.92038157e-10
 4.92038157e-10
 4.92038157e-10
 1.31691760e-10
)
)
1
(
101
(
 7.18987982e-07
 7.18987982e-07
 7.18987982e-07
 7.18987982e-07
 7.18987982e-07
 7.18987982e-07
 7.18987982e-07
 7.18987982e-07
 7.18987982e-07
 7.18987982e-07
 7.18987982e-07
 7.18987982e-07
 7.18987982e-07
 7.18987982e-07
 7.18987982e-07
 7.18987982e-07
 7.18987982e-07
 7.18987982e-07
 7.18987982e-07
 7.18987982e-07
 7.18987982e-07
 7.18987982e-07
 7.18987982e-07
 7.18987982e-07
 7.18987982e-07
 7.18987982e-07
 7.18987982e-07
 7.18987982e-07
 7.18987982e-07
 7.18987982e-07
 7.18987982e-07
 7.18987982e-07
 7.18987982e-07
 7.18987982e-07
 7.18987982e-07
 7.18987982e-07
 7.18987982e-07
 7.18987982e-07
 7.18987982e-07
 7.18987982e-07
 7.18987982e-07
 7.18987982e-07
 7.18987982e-07
 7.18987982e-07
 5.80610513e-09
 5.80610513e-09
 5.80610513e-09
 5.80610513e-09
 5.80610513e-09
 5.80610513e-09
 3.13010806e-08
 3.13010806e-08
 3.13010806e-08
 3.13010806e-08
 3.13010806e-08
 3.13010806e-08
 3.13010806e-08
 3.13010806e-08
 3.13010806e-08
 3.13010806e-08
 3.13010806e-08
 3.13010806e-08
 3.13010806e-08
 3.13010806e-08
 3.13010806e-08
 3.13010806e-08
 2.85967088e-08
 2.85967088e-08
 2.85967088e-08
 2.85967088e-08
 2.85967088e-08
 2.85967088e-08
 2.85967088e-08
 2.85967088e-08
 2.85967088e-08
 2.85967088e-08
 2.85967088e-08
 2.85967088e-08
 2.40453599e-09
 2.40453599e-09
 2.40453599e-09
 2.40453599e-09
 2.40453599e-09
 2.40453599e-09
 2.40453599e-09
 2.80241621e-09
 2.80241621e-09
 2.80241621e-09
 2.80241621e-09
 2.80241621e-09
 2.80241621e-09
 2.03379202e-09
 2.03379202e-09
 2.03379202e-09
 2.03379202e-09
 2.03379202e-09
 2.03379202e-09
 1.13271432e-09
 1.13271432e-09
 4.19172057e-10
 4.19172057e-10
)
)
1
(
101
(
 9.76154228e-07
 9.76154228e-07
 9.76154228e-07
 9.76154228e-07
 9.76154228e-07
 9.76154228e-07
 9.76154228e-07
 9.76154228e-07
 9.76154228e-07
 9.76154228e-07
 9.76154228e-07
 9.76154228e-07
 9.76154228e-07
 9.76154228e-07
 9.76154228e-07
 9.76154228e-07
 9.76154228e-07
 9.76154228e-07
 9.76154228e-07
 9.76154228e-07
 9.76154228e-07
 9.76154228e-07
 9.76154228e-07
 9.76154228e-07
 9.76154228e-07
 9.76154228e-07
 9.76154228e-07
 9.76154228e-07
 9.76154228e-07
 9.76154228e-07
 9.76154228e-07
 9.76154228e-07
 9.76154228e-07
 9.76154228e-07
 9.76154228e-07
 9.76154228e-07
 9.76154228e-07
 9.76154228e-07
 9.76154228e-07
 9.76154228e-07
 9.76154228e-07
 9.76154228e-07
 9.76154228e-07
 9.76154228e-07
 4.74366108e-09
 5.80610513e-09
 5.80610513e-09
 5.80610513e-09
 5.80610513e-09
 5.80610513e-09
 5.80610513e-09
 3.13010806e-08
 3.13010806e-08
 3.13010806e-08
 3.13010806e-08
 3.13010806e-08
 3.13010806e-08
 3.13010806e-08
 3.13010806e-08
 3.13010806e-08
 3.13010806e-08
 3.13010806e-08
 3.13010806e-08
 3.13010806e-08
 3.13010806e-08
 3.13010806e-08
 3.13010806e-08
 2.85967088e-08
 2.85967088e-08
 2.85967088e-08
 2.85967088e-08
 2.85967088e-08
 2.85967088e-08
 2.85967088e-08
 2.85967088e-08
 2.85967088e-08
 2.85967088e-08
 2.85967088e-08
 2.85967088e-08
 3.79065554e-09
 2.40453599e-09
 2.40453599e-09
 2.40453599e-09
 2.40453599e-09
 2.40453599e-09
 2.40453599e-09
 2.80241621e-09
 2.80241621e-09
 2.80241621e-09
 2.80241621e-09
 2.80241621e-09
 2.80241621e-09
 2.80241621e-09
 2.03379202e-09
 2.03379202e-09
 2.03379202e-09
 2.03379202e-09
 2.03379202e-09
 1.13271432e-09
 3.35451962e-11
 3.35451962e-11
)
)
1
(
101
(
 1.47738636e-06
 1.47738636e-06
 1.47738636e-06
 1.47738636e-06
 1.47738636e-06
 1.47738636e-06
 1.47738636e-06
 1.47738636e-06
 1.47738636e-06
 1.47738636e-06
 1.47738636e-06
 1.47738636e-06
 1.47738636e-06
 1.47738636e-06
 1.47738636e-06
 1.47738636e-06
 1.47738636e-06
 1.47738636e-06
 1.47738636e-06
 1.47738636e-06
 1.47738636e-06
 1.47738636e-06
 1.47738636e-06
 1.47738636e-06
 1.47738636e-06
 1.47738636e-06
 1.47738636e-06
 1.47738636e-06
 1.47738636e-06
 1.47738636e-06
 1.47738636e-06
 1.47738636e-06
 1.47738636e-06
 1.47738636e-06
 1.47738636e-06
 1.47738636e-06
 1.47738636e-06
 1.47738636e-06
 1.47738636e-06
 1.47738636e-06
 1.47738636e-06
 1.47738636e-06
 1.47738636e-06
 1.47738636e-06
 4.74366108e-09
 4.74366108e-09
 4.74366108e-09
 5.80610513e-09
 5.80610513e-09
 5.80610513e-09
 5.80610513e-09
 5.80610513e-09
 5.80610513e-09
 3.13010806e-08
 3.13010806e-08
 3.13010806e-08
 3.13010806e-08
 3.13010806e-08
 3.13010806e-08
 3.13010806e-08
 3.13010806e-08
 3.13010806e-08
 3.13010806e-08
 3.13010806e-08
 3.13010806e-08
 3.13010806e-08
 3.13010806e-08
 3.13010806e-08
 2.85967088e-08
 2.85967088e-08
 2.85967088e-08
 2.85967088e-08
 2.85967088e-08
 2.85967088e-08
 2.85967088e-08
 2.85967088e-08
 2.85967088e-08
 2.85967088e-08
 2.85967088e-08
 2.85967088e-08
 3.79065554e-09
 2.40453599e-09
 2.40453599e-09
 2.40453599e-09
 2.40453599e-09
 2.40453599e-09
 2.40453599e-09
 2.40453599e-09
 2.80241621e-09
 2.80241621e-09
 2.80241621e-09
 2.80241621e-09
 2.80241621e-09
 2.80241621e-09
 1.92556170e-09
 2.03379202e-09
 2.03379202e-09
 2.03379202e-09
 4.43179067e-10
 4.43179067e-10
 3.35451962e-11
)
)
1
(
101
(
 1.77519024e-06
 1.77519024e-06
 1.77519024e-06
 1.77519024e-06
 1.77519024e-06
 1.77519024e-06
 1.77519024e-06
 1.77519024e-06
 1.77519024e-06
 1.77519024e-06
 1.77519024e-06
 1.77519024e-06
 1.77519024e-06
 1.77519024e-06
 1.77519024e-06
 1.77519024e-06
 1.77519024e-06
 1.77519024e-06
 1.77519024e-06
 1.77519024e-06
 1.77519024e-06
 1.77519024e-06
 1.77519024e-06
 1.77519024e-06
 1.77519024e-06
 1.77519024e-06
 1.77519024e-06
 1.77519024e-06
 1.77519024e-06
 1.77519024e-06
 1.77519024e-06
 1.77519024e-06
 1.77519024e-06
 1.77519024e-06
 1.77519024e-06
 1.77519024e-06
 1.77519024e-06
 1.77519024e-06
 1.77519024e-06
 1.77519024e-06
 1.77519024e-06
 1.77519024e-06
 8.00394880e-06
 4.74366108e-09
 4.74366108e-09
 4.74366108e-09
 4.74366108e-09
 4.74366108e-09
 5.80610513e-09
 5.80610513e-09
 5.80610513e-09
 5.80610513e-09
 5.80610513e-09
 5.80610513e-09
 3.13010806e-08
 3.13010806e-08
 3.13010806e-08
 3.13010806e-08
 3.13010806e-08
 3.13010806e-08
 3.13010806e-08
 3.13010806e-08
 3.13010806e-08
 3.13010806e-08
 3.13010806e-08
 3.13010806e-08
 3.13010806e-08
 3.13010806e-08
 3.13010806e-08
 3.13010806e-08
 2.85967088e-08
 2.85967088e-08
 2.85967088e-08
 2.85967088e-08
 2.85967088e-08
 2.85967088e-08
 2.85967088e-08
 2.85967088e-08
 2.85967088e-08
 2.85967088e-08
 2.85967088e-08
 3.79065554e-09
 3.79065554e-09
 2.40453599e-09
 2.40453599e-09
 2.40453599e-09
 2.40453599e-09
 2.40453599e-09
 2.40453599e-09
 2.80241621e-09
 2.80241621e-09
 2.80241621e-09
 2.80241621e-09
 2.80241621e-09
 2.80241621e-09
 1.92556170e-09
 1.92556170e-09
 9.57000661e-10
 9.57000661e-10
 4.43179067e-10
 4.43179067e-10
)
)
1
(
101
(
 2.07896892e-06
 2.07896892e-06
 2.07896892e-06
 2.07896892e-06
 2.07896892e-06
 2.07896892e-06
 2.07896892e-06
 2.07896892e-06
 2.07896892e-06
 2.07896892e-06
 2.07896892e-06
 2.07896892e-06
 2.07896892e-06
 2.07896892e-06
 2.07896892e-06
 2.07896892e-06
 2.07896892e-06
 2.07896892e-06
 2.07896892e-06
 2.07896892e-06
 2.07896892e-06
 2.07896892e-06
 2.07896892e-06
 2.07896892e-06
 2.07896892e-06
 2.07896892e-06
 2.07896892e-06
 2.07896892e-06
 2.07896892e-06
 2.07896892e-06
 2.07896892e-06
 2.07896892e-06
 2.07896892e-06
 8.00394880e-06
 8.00394880e-06
 8.00394880e-06
 8.00394880e-06
 8.00394880e-06
 8.00394880e-06
 8.00394880e-06
 8.00394880e-06
 8.00394880e-06
 8.00394880e-06
 4.74366108e-09
 4.74366108e-09
 4.74366108e-09
 4.74366108e-09
 4.74366108e-09
 4.74366108e-09
 5.80610513e-09
 5.80610513e-09
 5.80610513e-09
 5.80610513e-09
 5.80610513e-09
 5.80610513e-09
 5.80610513e-09
 3.13010806e-08
 3.13010806e-08
 3.13010806e-08
 3.13010806e-08
 3.13010806e-08
 3.13010806e-08
 3.13010806e-08
 3.13010806e-08
 3.13010806e-08
 3.13010806e-08
 3.13010806e-08
 3.13010806e-08
 3.13010806e-08
 3.13010806e-08
 3.13010806e-08
 2.85967088e-08
 2.85967088e-08
 2.85967088e-08
 2.85967088e-08
 2.85967088e-08
 2.85967088e-08
 2.85967088e-08
 2.85967088e-08
 2.85967088e-08
 2.85967088e-08
 2.85967088e-08
 3.79065554e-09
 3.79065554e-09
 2.40453599e-09
 2.40453599e-09
 2.40453599e-09
 2.40453599e-09
 2.40453599e-09
 2.40453599e-09
 2.40453599e-09
 2.80241621e-09
 2.80241621e-09
 2.80241621e-09
 2.80241621e-09
 2.80241621e-09
 1.92556170e-09
 1.92556170e-09
 9.57000661e-10
 9.57000661e-10
 4.43179067e-10
)
)
1
(
101
(
 2.67950504e-06
 2.67950504e-06
 2.67950504e-06
 2.67950504e-06
 2.67950504e-06
 2.67950504e-06
 2.67950504e-06
 2.67950504e-06
 2.67950504e-06
 2.67950504e-06
 2.67950504e-06
 2.67950504e-06
 2.67950504e-06
 2.67950504e-06
 2.67950504e-06
 2.67950504e-06
 2.67950504e-06
 2.67950504e-06
 2.67950504e-06
 2.67950504e-06
 2.67950504e-06
 2.67950504e-06
 2.67950504e-06
 2.67950504e-06
 2.67950504e-06
 2.67950504e-06
 8.00394880e-06
 8.00394880e-06
 8.00394880e-06
 8.00394880e-06
 8.00394880e-06
 8.00394880e-06
 8.00394880e-06
 8.00394880e-06
 8.00394880e-06
 8.00394880e-06
 8.00394880e-06
 8.00394880e-06
 8.00394880e-06
 8.00394880e-06
 8.00394880e-06
 8.00394880e-06
 8.00394880e-06
 4.74366108e-09
 4.74366108e-09
 4.74366108e-09
 4.74366108e-09
 4.74366108e-09
 4.74366108e-09
 4.74366108e-09
 5.80610513e-09
 5.80610513e-09
 5.80610513e-09
 5.80610513e-09
 5.80610513e-09
 5.80610513e-09
 5.80610513e-09
 3.13010806e-08
 3.13010806e-08
 3.13010806e-08
 3.13010806e-08
 3.13010806e-08
 3.13010806e-08
 3.13010806e-08
 3.13010806e-08
 3.13010806e-08
 3.13010806e-08
 3.13010806e-08
 3.13010806e-08
 3.13010806e-08
 3.13010806e-08
 3.13010806e-08
 2.85967088e-08
 2.85967088e-08
 2.85967088e-08
 2.85967088e-08
 2.85967088e-08
 2.85967088e-08
 2.85967088e-08
 2.85967088e-08
 2.85967088e-08
 2.85967088e-08
 2.85967088e-08
 3.79065554e-09
 3.79065554e-09
 3.79065554e-09
 2.40453599e-09
 2.40453599e-09
 2.40453599e-09
 2.40453599e-09
 2.40453599e-09
 2.40453599e-09
 3.12768579e-09
 2.80241621e-09
 2.80241621e-09
 2.80241621e-09
 9.31657068e-10
 9.31657068e-10
 9.31657068e-10
 9.57000661e-10
 9.57000661e-10
)
)
1
(
101
(
 2.77523811e-06
 2.77523811e-06
 2.77523811e-06
 2.77523811e-06
 2.77523811e-06
 2.77523811e-06
 2.77523811e-06
 2.77523811e-06
 2.77523811e-06
 2.77523811e-06
 2.77523811e-06
 2.77523811e-06
 2.77523811e-06
 2.77523811e-06
 2.77523811e-06
 2.77523811e-06
 2.77523811e-06
 2.77523811e-06
 2.77523811e-06
 8.00394880e-06
 8.00394880e-06
 8.00394880e-06
 8.00394880e-06
 8.00394880e-06
 8.00394880e-06
 8.00394880e-06
 8.00394880e-06
 8.00394880e-06
 8.00394880e-06
 8.00394880e-06
 8.00394880e-06
 8.00394880e-06
 8.00394880e-06
 8.00394880e-06
 8.00394880e-06
 8.00394880e-06
 8.00394880e-06
 8.00394880e-06
 8.00394880e-06
 8.00394880e-06
 8.00394880e-06
 8.00394880e-06
 4.74366108e-09
 4.74366108e-09
 4.74366108e-09
 4.74366108e-09
 4.74366108e-09
 4.74366108e-09
 4.74366108e-09
 4.74366108e-09
 4.74366108e-09
 5.80610513e-09
 5.80610513e-09
 5.80610513e-09
 5.80610513e-09
 5.80610513e-09
 5.80610513e-09
 5.80610513e-09
 5.80610513e-09
 3.13010806e-08
 3.13010806e-08
 3.13010806e-08
 3.13010806e-08
 3.13010806e-08
 3.13010806e-08
 3.13010806e-08
 3.13010806e-08
 3.13010806e-08
 3.13010806e-08
 3.13010806e-08
 3.13010806e-08
 3.13010806e-08
 3.13010806e-08
 2.85967088e-08
 2.85967088e-08
 2.85967088e-08
 2.85967088e-08
 2.85967088e-08
 2.85967088e-08
 2.85967088e-08
 2.85967088e-08
 2.85967088e-08
 2.85967088e-08
 2.85967088e-08
 3.79065554e-09
 3.79065554e-09
 3.79065554e-09
 2.40453599e-09
 2.40453599e-09
 2.40453599e-09
 2.40453599e-09
 2.40453599e-09
 2.40453599e-09
 3.12768579e-09
 3.12768579e-09
 8.97238124e-10
 8.97238124e-10
 9.31657068e-10
 9.31657068e-10
 9.31657068e-10
 9.31657068e-10
)
)
1
(
101
(
 3.33480569e-06
 3.33480569e-06
 3.33480569e-06
 3.33480569e-06
 3.33480569e-06
 3.33480569e-06
 3.33480569e-06
 3.33480569e-06
 3.33480569e-06
 3.33480569e-06
 3.33480569e-06
 3.33480569e-06
 3.33480569e-06
 3.33480569e-06
 8.00394880e-06
 8.00394880e-06
 8.00394880e-06
 8.00394880e-06
 8.00394880e-06
 8.00394880e-06
 8.00394880e-06
 8.00394880e-06
 8.00394880e-06
 8.00394880e-06
 8.00394880e-06
 8.00394880e-06
 8.00394880e-06
 8.00394880e-06
 8.00394880e-06
 8.00394880e-06
 8.00394880e-06
 8.00394880e-06
 8.00394880e-06
 8.00394880e-06
 8.00394880e-06
 8.00394880e-06
 8.00394880e-06
 8.00394880e-06
 8.00394880e-06
 8.00394880e-06
 8.00394880e-06
 8.00394880e-06
 4.74366108e-09
 4.74366108e-09
 4.74366108e-09
 4.74366108e-09
 4.74366108e-09
 4.74366108e-09
 4.74366108e-09
 4.74366108e-09
 4.74366108e-09
 4.74366108e-09
 5.80610513e-09
 5.80610513e-09
 5.80610513e-09
 5.80610513e-09
 5.80610513e-09
 5.80610513e-09
 5.80610513e-09
 5.80610513e-09
 3.13010806e-08
 3.13010806e-08
 3.13010806e-08
 3.13010806e-08
 3.13010806e-08
 3.13010806e-08
 3.13010806e-08
 3.13010806e-08
 3.13010806e-08
 3.13010806e-08
 3.13010806e-08
 3.13010806e-08
 3.13010806e-08
 3.13010806e-08
 3.13010806e-08
 2.85967088e-08
 2.85967088e-08
 2.85967088e-08
 2.85967088e-08
 2.85967088e-08
 2.85967088e-08
 2.85967088e-08
 2.85967088e-08
 2.85967088e-08
 2.85967088e-08
 3.79065554e-09
 3.79065554e-09
 3.79065554e-09
 3.79065554e-09
 2.40453599e-09
 2.40453599e-09
 2.40453599e-09
 2.40453599e-09
 2.40453599e-09
 3.12768579e-09
 3.12768579e-09
 8.97238124e-10
 8.97238124e-10
 9.31657068e-10
 9.31657068e-10
 9.31657068e-10
)
)
1
(
101
(
 3.56709820e-06
 3.56709820e-06
 3.56709820e-06
 3.56709820e-06
 3.56709820e-06
 3.56709820e-06
 3.56709820e-06
 3.56709820e-06
 3.56709820e-06
 8.00394880e-06
 8.00394880e-06
 8.00394880e-06
 8.00394880e-06
 8.00394880e-06
 8.00394880e-06
 8.00394880e-06
 8.00394880e-06
 8.00394880e-06
 8.00394880e-06
 8.00394880e-06
 8.00394880e-06
 8.00394880e-06
 8.00394880e-06
 8.00394880e-06
 8.00394880e-06
 8.00394880e-06
 8.00394880e-06
 8.00394880e-06
 8.00394880e-06
 8.00394880e-06
 8.00394880e-06
 8.00394880e-06
 8.00394880e-06
 8.00394880e-06
 8.00394880e-06
 8.00394880e-06
 8.00394880e-06
 8.00394880e-06
 8.00394880e-06
 8.00394880e-06
 8.00394880e-06
 8.00394880e-06
 4.74366108e-09
 4.74366108e-09
 4.74366108e-09
 4.74366108e-09
 4.74366108e-09
 4.74366108e-09
 4.74366108e-09
 4.74366108e-09
 4.74366108e-09
 4.74366108e-09
 4.74366108e-09
 4.74366108e-09
 5.80610513e-09
 5.80610513e-09
 5.80610513e-09
 5.80610513e-09
 5.80610513e-09
 5.80610513e-09
 5.80610513e-09
 5.80610513e-09
 3.13010806e-08
 3.13010806e-08
 3.13010806e-08
 3.13010806e-08
 3.13010806e-08
 3.13010806e-08
 3.13010806e-08
 3.13010806e-08
 3.13010806e-08
 3.13010806e-08
 3.13010806e-08
 3.13010806e-08
 3.13010806e-08
 3.13010806e-08
 2.85967088e-08
 2.85967088e-08
 2.85967088e-08
 2.85967088e-08
 2.85967088e-08
 2.85967088e-08
 2.85967088e-08
 2.85967088e-08
 2.85967088e-08
 2.85967088e-08
 3.79065554e-09
 3.79065554e-09
 3.79065554e-09
 3.79065554e-09
 2.09115824e-09
 2.40453599e-09
 2.40453599e-09
 2.40453599e-09
 2.40453599e-09
 3.12768579e-09
 3.12768579e-09
 8.97238124e-10
 8.97238124e-10
 9.31657068e-10
 9.31657068e-10
)
)
1
(
101
(
 3.68584171e-06
 3.68584171e-06
 3.68584171e-06
 3.68584171e-06
 3.68584171e-06
 3.68584171e-06
 8.00394880e-06
 8.00394880e-06
 8.00394880e-06
 8.00394880e-06
 8.00394880e-06
 8.00394880e-06
 8.00394880e-06
 8.00394880e-06
 8.00394880e-06
 8.00394880e-06
 8.00394880e-06
 8.00394880e-06
 8.00394880e-06
 8.00394880e-06
 8.00394880e-06
 8.00394880e-06
 8.00394880e-06
 8.00394880e-06
 8.00394880e-06
 8.00394880e-06
 8.00394880e-06
 8.00394880e-06
 8.00394880e-06
 8.00394880e-06
 8.00394880e-06
 8.00394880e-06
 8.00394880e-06
 8.00394880e-06
 8.00394880e-06
 8.00394880e-06
 8.00394880e-06
 8.00394880e-06
 8.00394880e-06
 8.00394880e-06
 8.00394880e-06
 8.00394880e-06
 4.74366108e-09
 4.74366108e-09
 4.74366108e-09
 4.74366108e-09
 4.74366108e-09
 4.74366108e-09
 4.74366108e-09
 4.74366108e-09
 4.74366108e-09
 4.74366108e-09
 4.74366108e-09
 4.74366108e-09
 4.74366108e-09
 5.80610513e-09
 5.80610513e-09
 5.80610513e-09
 5.80610513e-09
 5.80610513e-09
 5.80610513e-09
 5.80610513e-09
 5.80610513e-09
 3.13010806e-08
 3.13010806e-08
 3.13010806e-08
 3.13010806e-08
 3.13010806e-08
 3.13010806e-08
 3.13010806e-08
 3.13010806e-08
 3.13010806e-08
 3.13010806e-08
 3.13010806e-08
 3.13010806e-08
 3.13010806e-08
 3.13010806e-08
 2.85967088e-08
 2.85967088e-08
 2.85967088e-08
 2.85967088e-08
 2.85967088e-08
 2.85967088e-08
 2.85967088e-08
 2.85967088e-08
 2.85967088e-08
 2.85967088e-08
 3.79065554e-09
 3.79065554e-09
 3.79065554e-09
 3.79065554e-09
 2.09115824e-09
 2.09115824e-09
 1.33633595e-09
 1.33633595e-09
 1.33633595e-09
 3.12768579e-09
 3.12768579e-09
 8.97238124e-10
 8.97238124e-10
 9.31657068e-10
)
)
1
(
101
(
 4.33895912e-06
 4.33895912e-06
 4.33895912e-06
 8.00394880e-06
 8.00394880e-06
 8.00394880e-06
 8.00394880e-06
 8.00394880e-06
 8.00394880e-06
 8.00394880e-06
 8.00394880e-06
 8.00394880e-06
 8.00394880e-06
 8.00394880e-06
 8.00394880e-06
 8.00394880e-06
 8.00394880e-06
 8.00394880e-06
 8.00394880e-06
 8.00394880e-06
 8.00394880e-06
 8.00394880e-06
 8.00394880e-06
 8.00394880e-06
 8.00394880e-06
 8.00394880e-06
 8.00394880e-06
 8.00394880e-06
 8.00394880e-06
 8.00394880e-06
 8.00394880e-06
 8.00394880e-06
 8.00394880e-06
 8.00394880e-06
 8.00394880e-06
 8.00394880e-06
 8.00394880e-06
 8.00394880e-06
 8.00394880e-06
 8.00394880e-06
 8.00394880e-06
 1.57915561e-09
 4.74366108e-09
 4.74366108e-09
 4.74366108e-09
 4.74366108e-09
 4.74366108e-09
 4.74366108e-09
 4.74366108e-09
 4.74366108e-09
 4.74366108e-09
 4.74366108e-09
 4.74366108e-09
 4.74366108e-09
 4.74366108e-09
 4.74366108e-09
 5.80610513e-09
 5.80610513e-09
 5.80610513e-09
 5.80610513e-09
 5.80610513e-09
 5.80610513e-09
 5.80610513e-09
 5.80610513e-09
 5.80610513e-09
 3.13010806e-08
 3.13010806e-08
 3.13010806e-08
 3.13010806e-08
 3.13010806e-08
 3.13010806e-08
 3.13010806e-08
 3.13010806e-08
 3.13010806e-08
 3.13010806e-08
 3.13010806e-08
 3.13010806e-08
 3.13010806e-08
 2.85967088e-08
 2.85967088e-08
 2.85967088e-08
 2.85967088e-08
 2.85967088e-08
 2.85967088e-08
 2.85967088e-08
 2.85967088e-08
 2.85967088e-08
 2.85967088e-08
 3.79065554e-09
 3.79065554e-09
 3.79065554e-09
 3.79065554e-09
 2.09115824e-09
 2.09115824e-09
 1.33633595e-09
 1.33633595e-09
 1.33633595e-09
 1.33633595e-09
 3.12768579e-09
 8.97238124e-10
 8.97238124e-10
)
)
1
(
101
(
 3.96527857e-06
 3.96527857e-06
 8.00394880e-06
 8.00394880e-06
 8.00394880e-06
 8.00394880e-06
 8.00394880e-06
 8.00394880e-06
 8.00394880e-06
 8.00394880e-06
 8.00394880e-06
 8.00394880e-06
 8.00394880e-06
 8.00394880e-06
 8.00394880e-06
 8.00394880e-06
 8.00394880e-06
 8.00394880e-06
 8.00394880e-06
 8.00394880e-06
 8.00394880e-06
 8.00394880e-06
 8.00394880e-06
 8.00394880e-06
 8.00394880e-06
 8.00394880e-06
 8.00394880e-06
 8.00394880e-06
 8.00394880e-06
 8.00394880e-06
 8.00394880e-06
 8.00394880e-06
 8.00394880e-06
 8.00394880e-06
 8.00394880e-06
 8.00394880e-06
 8.00394880e-06
 8.00394880e-06
 8.00394880e-06
 8.00394880e-06
 8.00394880e-06
 1.57915561e-09
 1.57915561e-09
 4.74366108e-09
 4.74366108e-09
 4.74366108e-09
 4.74366108e-09
 4.74366108e-09
 4.74366108e-09
 4.74366108e-09
 4.74366108e-09
 4.74366108e-09
 4.74366108e-09
 4.74366108e-09
 4.74366108e-09
 4.74366108e-09
 4.74366108e-09
 5.80610513e-09
 5.80610513e-09
 5.80610513e-09
 5.80610513e-09
 5.80610513e-09
 5.80610513e-09
 5.80610513e-09
 5.80610513e-09
 5.80610513e-09
 3.13010806e-08
 3.13010806e-08
 3.13010806e-08
 3.13010806e-08
 3.13010806e-08
 3.13010806e-08
 3.13010806e-08
 3.13010806e-08
 3.13010806e-08
 3.13010806e-08
 3.13010806e-08
 3.13010806e-08
 3.13010806e-08
 3.13010806e-08
 2.85967088e-08
 2.85967088e-08
 2.85967088e-08
 2.85967088e-08
 2.85967088e-08
 2.85967088e-08
 2.85967088e-08
 2.85967088e-08
 2.41457785e-09
 3.79065554e-09
 3.79065554e-09
 3.79065554e-09
 2.45098926e-11
 2.45098926e-11
 2.45098926e-11
 1.33633595e-09
 1.33633595e-09
 1.33633595e-09
 1.33633595e-09
 1.33633595e-09
 8.97238124e-10
)
)
1
(
101
(
 1.23054919e-06
 8.00394880e-06
 8.00394880e-06
 8.00394880e-06
 8.00394880e-06
 8.00394880e-06
 8.00394880e-06
 8.00394880e-06
 8.00394880e-06
 8.00394880e-06
 8.00394880e-06
 8.00394880e-06
 8.00394880e-06
 8.00394880e-06
 8.00394880e-06
 8.00394880e-06
 8.00394880e-06
 8.00394880e-06
 8.00394880e-06
 8.00394880e-06
 8.00394880e-06
 8.00394880e-06
 8.00394880e-06
 8.00394880e-06
 8.00394880e-06
 8.00394880e-06
 8.00394880e-06
 8.00394880e-06
 8.00394880e-06
 8.00394880e-06
 8.00394880e-06
 8.00394880e-06
 8.00394880e-06
 8.00394880e-06
 8.00394880e-06
 8.00394880e-06
 8.00394880e-06
 8.00394880e-06
 8.00394880e-06
 8.00394880e-06
 1.57915561e-09
 1.57915561e-09
 1.57915561e-09
 1.57915561e-09
 4.74366108e-09
 4.74366108e-09
 4.74366108e-09
 4.74366108e-09
 4.74366108e-09
 4.74366108e-09
 4.74366108e-09
 4.74366108e-09
 4.74366108e-09
 4.74366108e-09
 4.74366108e-09
 4.74366108e-09
 4.74366108e-09
 4.74366108e-09
 5.80610513e-09
 5.80610513e-09
 5.80610513e-09
 5.80610513e-09
 5.80610513e-09
 5.80610513e-09
 5.80610513e-09
 5.80610513e-09
 5.80610513e-09
 5.80610513e-09
 3.13010806e-08
 3.13010806e-08
 3.13010806e-08
 3.13010806e-08
 3.13010806e-08
 3.13010806e-08
 3.13010806e-08
 3.13010806e-08
 3.13010806e-08
 3.13010806e-08
 3.13010806e-08
 3.13010806e-08
 3.13010806e-08
 5.51640594e-09
 2.85967088e-08
 2.85967088e-08
 2.85967088e-08
 2.85967088e-08
 2.85967088e-08
 2.85967088e-08
 2.85967088e-08
 2.41457785e-09
 2.41457785e-09
 7.67824595e-10
 7.67824595e-10
 2.45098926e-11
 2.45098926e-11
 2.45098926e-11
 2.45098926e-11
 1.33633595e-09
 1.33633595e-09
 1.33633595e-09
 1.33633595e-09
)
)
1
(
101
(
 1.23054919e-06
 5.03067225e-06
 5.03067225e-06
 5.03067225e-06
 5.03067225e-06
 5.03067225e-06
 5.03067225e-06
 5.03067225e-06
 5.03067225e-06
 5.03067225e-06
 5.03067225e-06
 5.03067225e-06
 5.03067225e-06
 5.03067225e-06
 5.03067225e-06
 5.03067225e-06
 5.03067225e-06
 5.03067225e-06
 5.03067225e-06
 5.03067225e-06
 5.03067225e-06
 5.03067225e-06
 5.03067225e-06
 5.03067225e-06
 5.03067225e-06
 5.03067225e-06
 5.03067225e-06
 5.03067225e-06
 5.03067225e-06
 5.03067225e-06
 5.03067225e-06
 5.03067225e-06
 5.03067225e-06
 5.03067225e-06
 5.03067225e-06
 5.03067225e-06
 5.03067225e-06
 5.03067225e-06
 5.03067225e-06
 5.03067225e-06
 1.57915561e-09
 1.57915561e-09
 1.57915561e-09
 1.57915561e-09
 1.57915561e-09
 4.74366108e-09
 4.74366108e-09
 4.74366108e-09
 4.74366108e-09
 4.74366108e-09
 4.74366108e-09
 4.74366108e-09
 4.74366108e-09
 4.74366108e-09
 4.74366108e-09
 4.74366108e-09
 4.74366108e-09
 4.74366108e-09
 4.74366108e-09
 5.80610513e-09
 5.80610513e-09
 5.80610513e-09
 5.80610513e-09
 5.80610513e-09
 5.80610513e-09
 5.80610513e-09
 5.80610513e-09
 5.80610513e-09
 5.80610513e-09
 3.13010806e-08
 3.13010806e-08
 3.13010806e-08
 3.13010806e-08
 3.13010806e-08
 3.13010806e-08
 3.13010806e-08
 3.13010806e-08
 3.13010806e-08
 3.13010806e-08
 3.13010806e-08
 3.13010806e-08
 3.13010806e-08
 5.51640594e-09
 5.51640594e-09
 2.85967088e-08
 2.85967088e-08
 2.85967088e-08
 2.85967088e-08
 2.85967088e-08
 2.41457785e-09
 2.41457785e-09
 2.41457785e-09
 7.67824595e-10
 7.67824595e-10
 2.45098926e-11
 2.45098926e-11
 2.45098926e-11
 2.45098926e-11
 2.45098926e-11
 1.33633595e-09
 1.33633595e-09
)
)
1
(
101
(
 5.63682286e-06
 5.63682286e-06
 5.63682286e-06
 5.63682286e-06
 5.63682286e-06
 5.63682286e-06
 5.63682286e-06
 5.63682286e-06
 5.63682286e-06
 5.63682286e-06
 5.63682286e-06
 5.63682286e-06
 5.63682286e-06
 5.63682286e-06
 5.63682286e-06
 5.63682286e-06
 5.63682286e-06
 5.63682286e-06
 5.63682286e-06
 5.63682286e-06
 5.63682286e-06
 5.63682286e-06
 5.63682286e-06
 5.63682286e-06
 5.63682286e-06
 5.63682286e-06
 5.63682286e-06
 5.63682286e-06
 5.63682286e-06
 5.63682286e-06
 5.63682286e-06
 5.63682286e-06
 5.63682286e-06
 5.63682286e-06
 5.63682286e-06
 5.63682286e-06
 5.63682286e-06
 5.63682286e-06
 5.63682286e-06
 5.63682286e-06
 1.57915561e-09
 1.57915561e-09
 1.57915561e-09
 1.57915561e-09
 1.57915561e-09
 1.57915561e-09
 4.74366108e-09
 4.74366108e-09
 4.74366108e-09
 4.74366108e-09
 4.74366108e-09
 4.74366108e-09
 4.74366108e-09
 4.74366108e-09
 4.74366108e-09
 4.74366108e-09
 4.74366108e-09
 4.74366108e-09
 4.74366108e-09
 4.74366108e-09
 4.74366108e-09
 5.80610513e-09
 5.80610513e-09
 5.80610513e-09
 5.80610513e-09
 5.80610513e-09
 5.80610513e-09
 5.80610513e-09
 5.80610513e-09
 5.80610513e-09
 5.80610513e-09
 3.13010806e-08
 3.13010806e-08
 3.13010806e-08
 3.13010806e-08
 3.13010806e-08
 3.13010806e-08
 3.13010806e-08
 3.13010806e-08
 3.13010806e-08
 3.13010806e-08
 3.13010806e-08
 3.13010806e-08
 5.51640594e-09
 5.51640594e-09
 5.51640594e-09
 2.85967088e-08
 2.85967088e-08
 2.85967088e-08
 2.85967088e-08
 2.41457785e-09
 2.41457785e-09
 2.41457785e-09
 7.67824595e-10
 7.67824595e-10
 2.45098926e-11
 2.45098926e-11
 2.45098926e-11
 2.45098926e-11
 2.45098926e-11
 2.45098926e-11
)
)
1
(
101
(
 6.25921739e-06
 6.25921739e-06
 6.25921739e-06
 6.25921739e-06
 6.25921739e-06
 6.25921739e-06
 6.25921739e-06
 6.25921739e-06
 6.25921739e-06
 6.25921739e-06
 6.25921739e-06
 6.25921739e-06
 6.25921739e-06
 6.25921739e-06
 6.25921739e-06
 6.25921739e-06
 6.25921739e-06
 6.25921739e-06
 6.25921739e-06
 6.25921739e-06
 6.25921739e-06
 6.25921739e-06
 6.25921739e-06
 6.25921739e-06
 6.25921739e-06
 6.25921739e-06
 6.25921739e-06
 6.25921739e-06
 6.25921739e-06
 6.25921739e-06
 6.25921739e-06
 6.25921739e-06
 6.25921739e-06
 6.25921739e-06
 6.25921739e-06
 6.25921739e-06
 6.25921739e-06
 6.25921739e-06
 6.25921739e-06
 1.57915561e-09
 1.57915561e-09
 1.57915561e-09
 1.57915561e-09
 1.57915561e-09
 1.57915561e-09
 1.57915561e-09
 1.57915561e-09
 1.57915561e-09
 4.74366108e-09
 4.74366108e-09
 4.74366108e-09
 4.74366108e-09
 4.74366108e-09
 4.74366108e-09
 4.74366108e-09
 4.74366108e-09
 4.74366108e-09
 4.74366108e-09
 4.74366108e-09
 4.74366108e-09
 4.74366108e-09
 4.74366108e-09
 5.80610513e-09
 5.80610513e-09
 5.80610513e-09
 5.80610513e-09
 5.80610513e-09
 5.80610513e-09
 5.80610513e-09
 5.80610513e-09
 5.80610513e-09
 5.80610513e-09
 3.13010806e-08
 3.13010806e-08
 3.13010806e-08
 3.13010806e-08
 3.13010806e-08
 3.13010806e-08
 3.13010806e-08
 3.13010806e-08
 3.13010806e-08
 3.13010806e-08
 3.13010806e-08
 3.13010806e-08
 5.51640594e-09
 5.51640594e-09
 5.51640594e-09
 5.51640594e-09
 3.40510197e-09
 3.40510197e-09
 3.40510197e-09
 2.41457785e-09
 2.41457785e-09
 2.41457785e-09
 7.67824595e-10
 7.67824595e-10
 2.45098926e-11
 2.45098926e-11
 2.45098926e-11