/*--------------------------------*- C++ -*----------------------------------*\
| =========                 |                                                 |
| \\      /  F ield        | OpenFOAM: The Open Source CFD Toolbox           |
|  \\    /   O peration    | Version:  7                                     |
|   \\  /    A nd          | Web:      http://www.OpenFOAM.com               |
|    \\/     M anipulation |                                                 |
\*---------------------------------------------------------------------------*/

FoamFile
{
    version     2.0;
    format      ascii;
    class       dictionary;
    object      Y_H_table;
}

Y_H_table
2
(
101
(
1
(
101
(
 4.87787005e-15
 4.87787005e-15
 4.87787005e-15
 4.87787005e-15
 4.87787005e-15
 4.87787005e-15
 4.87787005e-15
 4.87787005e-15
 4.87787005e-15
 4.87787005e-15
 4.87787005e-15
 4.87787005e-15
 4.87787005e-15
 4.87787005e-15
 4.87787005e-15
 4.87787005e-15
 4.87787005e-15
 4.87787005e-15
 4.87787005e-15
 4.87787005e-15
 4.87787005e-15
 4.87787005e-15
 4.87787005e-15
 4.87787005e-15
 4.87787005e-15
 4.87787005e-15
 4.87787005e-15
 4.87787005e-15
 4.87787005e-15
 4.87787005e-15
 4.87787005e-15
 4.87787005e-15
 4.87787005e-15
 4.87787005e-15
 4.87787005e-15
 4.87787005e-15
 4.87787005e-15
 4.87787005e-15
 4.87787005e-15
 4.87787005e-15
 4.87787005e-15
 4.87787005e-15
 4.87787005e-15
 4.87787005e-15
 4.87787005e-15
 2.31496322e-11
 2.31496322e-11
 6.16129313e-11
 6.16129313e-11
 6.16129313e-11
 6.16129313e-11
 6.16129313e-11
 6.16129313e-11
 6.16129313e-11
 6.16129313e-11
 6.16129313e-11
 6.16129313e-11
 6.16129313e-11
 6.16129313e-11
 6.16129313e-11
 6.16129313e-11
 6.16129313e-11
 6.16129313e-11
 3.85262479e-11
 3.85262479e-11
 3.85262479e-11
 3.85262479e-11
 3.85262479e-11
 3.85262479e-11
 3.85262479e-11
 3.85262479e-11
 3.85262479e-11
 3.85262479e-11
 3.85262479e-11
 3.85262479e-11
 3.26644372e-12
 3.26644372e-12
 3.26644372e-12
 3.26644372e-12
 3.26644372e-12
 3.26644372e-12
 3.26644372e-12
 3.65065041e-12
 3.65065041e-12
 3.65065041e-12
 3.65065041e-12
 3.65065041e-12
 3.65065041e-12
 2.36286737e-12
 2.36286737e-12
 2.36286737e-12
 2.36286737e-12
 2.36286737e-12
 2.36286737e-12
 2.36286737e-12
 9.20057270e-13
 9.20057270e-13
 9.20057270e-13
 9.20057270e-13
 9.20057270e-13
 6.26843396e-14
)
)
1
(
101
(
 6.40527429e-13
 6.40527429e-13
 6.40527429e-13
 6.40527429e-13
 6.40527429e-13
 6.40527429e-13
 6.40527429e-13
 6.40527429e-13
 6.40527429e-13
 6.40527429e-13
 6.40527429e-13
 6.40527429e-13
 6.40527429e-13
 6.40527429e-13
 6.40527429e-13
 6.40527429e-13
 6.40527429e-13
 6.40527429e-13
 6.40527429e-13
 6.40527429e-13
 6.40527429e-13
 6.40527429e-13
 6.40527429e-13
 6.40527429e-13
 6.40527429e-13
 6.40527429e-13
 6.40527429e-13
 6.40527429e-13
 6.40527429e-13
 6.40527429e-13
 6.40527429e-13
 6.40527429e-13
 6.40527429e-13
 6.40527429e-13
 6.40527429e-13
 6.40527429e-13
 6.40527429e-13
 6.40527429e-13
 6.40527429e-13
 6.40527429e-13
 6.40527429e-13
 6.40527429e-13
 6.40527429e-13
 6.40527429e-13
 6.40527429e-13
 2.31496322e-11
 2.31496322e-11
 2.31496322e-11
 6.16129313e-11
 6.16129313e-11
 6.16129313e-11
 6.16129313e-11
 6.16129313e-11
 6.16129313e-11
 6.16129313e-11
 6.16129313e-11
 6.16129313e-11
 6.16129313e-11
 6.16129313e-11
 6.16129313e-11
 6.16129313e-11
 6.16129313e-11
 6.16129313e-11
 6.16129313e-11
 6.16129313e-11
 3.85262479e-11
 3.85262479e-11
 3.85262479e-11
 3.85262479e-11
 3.85262479e-11
 3.85262479e-11
 3.85262479e-11
 3.85262479e-11
 3.85262479e-11
 3.85262479e-11
 3.85262479e-11
 3.85262479e-11
 3.26644372e-12
 3.26644372e-12
 3.26644372e-12
 3.26644372e-12
 3.26644372e-12
 3.26644372e-12
 3.65065041e-12
 3.65065041e-12
 3.65065041e-12
 3.65065041e-12
 3.65065041e-12
 3.65065041e-12
 3.65065041e-12
 2.36286737e-12
 2.36286737e-12
 2.36286737e-12
 2.36286737e-12
 2.36286737e-12
 2.36286737e-12
 1.34843569e-12
 9.20057270e-13
 9.20057270e-13
 9.20057270e-13
 4.41009946e-13
)
)
1
(
101
(
 3.30228612e-12
 3.30228612e-12
 3.30228612e-12
 3.30228612e-12
 3.30228612e-12
 3.30228612e-12
 3.30228612e-12
 3.30228612e-12
 3.30228612e-12
 3.30228612e-12
 3.30228612e-12
 3.30228612e-12
 3.30228612e-12
 3.30228612e-12
 3.30228612e-12
 3.30228612e-12
 3.30228612e-12
 3.30228612e-12
 3.30228612e-12
 3.30228612e-12
 3.30228612e-12
 3.30228612e-12
 3.30228612e-12
 3.30228612e-12
 3.30228612e-12
 3.30228612e-12
 3.30228612e-12
 3.30228612e-12
 3.30228612e-12
 3.30228612e-12
 3.30228612e-12
 3.30228612e-12
 3.30228612e-12
 3.30228612e-12
 3.30228612e-12
 3.30228612e-12
 3.30228612e-12
 3.30228612e-12
 3.30228612e-12
 3.30228612e-12
 3.30228612e-12
 3.30228612e-12
 3.30228612e-12
 3.30228612e-12
 2.31496322e-11
 2.31496322e-11
 2.31496322e-11
 2.31496322e-11
 2.31496322e-11
 2.31496322e-11
 6.16129313e-11
 6.16129313e-11
 6.16129313e-11
 6.16129313e-11
 6.16129313e-11
 6.16129313e-11
 6.16129313e-11
 6.16129313e-11
 6.16129313e-11
 6.16129313e-11
 6.16129313e-11
 6.16129313e-11
 6.16129313e-11
 6.16129313e-11
 6.16129313e-11
 6.16129313e-11
 3.85262479e-11
 3.85262479e-11
 3.85262479e-11
 3.85262479e-11
 3.85262479e-11
 3.85262479e-11
 3.85262479e-11
 3.85262479e-11
 3.85262479e-11
 3.85262479e-11
 3.85262479e-11
 3.85262479e-11
 3.26644372e-12
 3.26644372e-12
 3.26644372e-12
 3.26644372e-12
 3.26644372e-12
 3.26644372e-12
 3.26644372e-12
 3.65065041e-12
 3.65065041e-12
 3.65065041e-12
 3.65065041e-12
 3.65065041e-12
 3.65065041e-12
 2.36286737e-12
 2.36286737e-12
 2.36286737e-12
 2.36286737e-12
 2.36286737e-12
 2.36286737e-12
 1.34843569e-12
 1.34843569e-12
 7.27871156e-13
 7.27871156e-13
)
)
1
(
101
(
 7.59718529e-12
 7.59718529e-12
 7.59718529e-12
 7.59718529e-12
 7.59718529e-12
 7.59718529e-12
 7.59718529e-12
 7.59718529e-12
 7.59718529e-12
 7.59718529e-12
 7.59718529e-12
 7.59718529e-12
 7.59718529e-12
 7.59718529e-12
 7.59718529e-12
 7.59718529e-12
 7.59718529e-12
 7.59718529e-12
 7.59718529e-12
 7.59718529e-12
 7.59718529e-12
 7.59718529e-12
 7.59718529e-12
 7.59718529e-12
 7.59718529e-12
 7.59718529e-12
 7.59718529e-12
 7.59718529e-12
 7.59718529e-12
 7.59718529e-12
 7.59718529e-12
 7.59718529e-12
 7.59718529e-12
 7.59718529e-12
 7.59718529e-12
 7.59718529e-12
 7.59718529e-12
 7.59718529e-12
 7.59718529e-12
 7.59718529e-12
 7.59718529e-12
 7.59718529e-12
 7.59718529e-12
 7.59718529e-12
 3.44553995e-11
 2.31496322e-11
 2.31496322e-11
 2.31496322e-11
 2.31496322e-11
 2.31496322e-11
 2.31496322e-11
 6.16129313e-11
 6.16129313e-11
 6.16129313e-11
 6.16129313e-11
 6.16129313e-11
 6.16129313e-11
 6.16129313e-11
 6.16129313e-11
 6.16129313e-11
 6.16129313e-11
 6.16129313e-11
 6.16129313e-11
 6.16129313e-11
 6.16129313e-11
 6.16129313e-11
 6.16129313e-11
 3.85262479e-11
 3.85262479e-11
 3.85262479e-11
 3.85262479e-11
 3.85262479e-11
 3.85262479e-11
 3.85262479e-11
 3.85262479e-11
 3.85262479e-11
 3.85262479e-11
 3.85262479e-11
 3.85262479e-11
 5.90793612e-12
 3.26644372e-12
 3.26644372e-12
 3.26644372e-12
 3.26644372e-12
 3.26644372e-12
 3.26644372e-12
 3.65065041e-12
 3.65065041e-12
 3.65065041e-12
 3.65065041e-12
 3.65065041e-12
 3.65065041e-12
 3.65065041e-12
 2.36286737e-12
 2.36286737e-12
 2.36286737e-12
 2.36286737e-12
 2.36286737e-12
 1.34843569e-12
 2.16572624e-14
 2.16572624e-14
)
)
1
(
101
(
 2.09764667e-11
 2.09764667e-11
 2.09764667e-11
 2.09764667e-11
 2.09764667e-11
 2.09764667e-11
 2.09764667e-11
 2.09764667e-11
 2.09764667e-11
 2.09764667e-11
 2.09764667e-11
 2.09764667e-11
 2.09764667e-11
 2.09764667e-11
 2.09764667e-11
 2.09764667e-11
 2.09764667e-11
 2.09764667e-11
 2.09764667e-11
 2.09764667e-11
 2.09764667e-11
 2.09764667e-11
 2.09764667e-11
 2.09764667e-11
 2.09764667e-11
 2.09764667e-11
 2.09764667e-11
 2.09764667e-11
 2.09764667e-11
 2.09764667e-11
 2.09764667e-11
 2.09764667e-11
 2.09764667e-11
 2.09764667e-11
 2.09764667e-11
 2.09764667e-11
 2.09764667e-11
 2.09764667e-11
 2.09764667e-11
 2.09764667e-11
 2.09764667e-11
 2.09764667e-11
 2.09764667e-11
 2.09764667e-11
 3.44553995e-11
 3.44553995e-11
 3.44553995e-11
 2.31496322e-11
 2.31496322e-11
 2.31496322e-11
 2.31496322e-11
 2.31496322e-11
 2.31496322e-11
 6.16129313e-11
 6.16129313e-11
 6.16129313e-11
 6.16129313e-11
 6.16129313e-11
 6.16129313e-11
 6.16129313e-11
 6.16129313e-11
 6.16129313e-11
 6.16129313e-11
 6.16129313e-11
 6.16129313e-11
 6.16129313e-11
 6.16129313e-11
 6.16129313e-11
 3.85262479e-11
 3.85262479e-11
 3.85262479e-11
 3.85262479e-11
 3.85262479e-11
 3.85262479e-11
 3.85262479e-11
 3.85262479e-11
 3.85262479e-11
 3.85262479e-11
 3.85262479e-11
 3.85262479e-11
 5.90793612e-12
 3.26644372e-12
 3.26644372e-12
 3.26644372e-12
 3.26644372e-12
 3.26644372e-12
 3.26644372e-12
 3.26644372e-12
 3.65065041e-12
 3.65065041e-12
 3.65065041e-12
 3.65065041e-12
 3.65065041e-12
 3.65065041e-12
 1.88016890e-12
 2.36286737e-12
 2.36286737e-12
 2.36286737e-12
 6.09065603e-13
 6.09065603e-13
 2.16572624e-14
)
)
1
(
101
(
 4.08530106e-11
 4.08530106e-11
 4.08530106e-11
 4.08530106e-11
 4.08530106e-11
 4.08530106e-11
 4.08530106e-11
 4.08530106e-11
 4.08530106e-11
 4.08530106e-11
 4.08530106e-11
 4.08530106e-11
 4.08530106e-11
 4.08530106e-11
 4.08530106e-11
 4.08530106e-11
 4.08530106e-11
 4.08530106e-11
 4.08530106e-11
 4.08530106e-11
 4.08530106e-11
 4.08530106e-11
 4.08530106e-11
 4.08530106e-11
 4.08530106e-11
 4.08530106e-11
 4.08530106e-11
 4.08530106e-11
 4.08530106e-11
 4.08530106e-11
 4.08530106e-11
 4.08530106e-11
 4.08530106e-11
 4.08530106e-11
 4.08530106e-11
 4.08530106e-11
 4.08530106e-11
 4.08530106e-11
 4.08530106e-11
 4.08530106e-11
 4.08530106e-11
 4.08530106e-11
 2.45352313e-08
 3.44553995e-11
 3.44553995e-11
 3.44553995e-11
 3.44553995e-11
 3.44553995e-11
 2.31496322e-11
 2.31496322e-11
 2.31496322e-11
 2.31496322e-11
 2.31496322e-11
 2.31496322e-11
 6.16129313e-11
 6.16129313e-11
 6.16129313e-11
 6.16129313e-11
 6.16129313e-11
 6.16129313e-11
 6.16129313e-11
 6.16129313e-11
 6.16129313e-11
 6.16129313e-11
 6.16129313e-11
 6.16129313e-11
 6.16129313e-11
 6.16129313e-11
 6.16129313e-11
 6.16129313e-11
 3.85262479e-11
 3.85262479e-11
 3.85262479e-11
 3.85262479e-11
 3.85262479e-11
 3.85262479e-11
 3.85262479e-11
 3.85262479e-11
 3.85262479e-11
 3.85262479e-11
 3.85262479e-11
 5.90793612e-12
 5.90793612e-12
 3.26644372e-12
 3.26644372e-12
 3.26644372e-12
 3.26644372e-12
 3.26644372e-12
 3.26644372e-12
 3.65065041e-12
 3.65065041e-12
 3.65065041e-12
 3.65065041e-12
 3.65065041e-12
 3.65065041e-12
 1.88016890e-12
 1.88016890e-12
 1.21964122e-12
 1.21964122e-12
 6.09065603e-13
 6.09065603e-13
)
)
1
(
101
(
 8.52447475e-11
 8.52447475e-11
 8.52447475e-11
 8.52447475e-11
 8.52447475e-11
 8.52447475e-11
 8.52447475e-11
 8.52447475e-11
 8.52447475e-11
 8.52447475e-11
 8.52447475e-11
 8.52447475e-11
 8.52447475e-11
 8.52447475e-11
 8.52447475e-11
 8.52447475e-11
 8.52447475e-11
 8.52447475e-11
 8.52447475e-11
 8.52447475e-11
 8.52447475e-11
 8.52447475e-11
 8.52447475e-11
 8.52447475e-11
 8.52447475e-11
 8.52447475e-11
 8.52447475e-11
 8.52447475e-11
 8.52447475e-11
 8.52447475e-11
 8.52447475e-11
 8.52447475e-11
 8.52447475e-11
 2.45352313e-08
 2.45352313e-08
 2.45352313e-08
 2.45352313e-08
 2.45352313e-08
 2.45352313e-08
 2.45352313e-08
 2.45352313e-08
 2.45352313e-08
 2.45352313e-08
 3.44553995e-11
 3.44553995e-11
 3.44553995e-11
 3.44553995e-11
 3.44553995e-11
 3.44553995e-11
 2.31496322e-11
 2.31496322e-11
 2.31496322e-11
 2.31496322e-11
 2.31496322e-11
 2.31496322e-11
 2.31496322e-11
 6.16129313e-11
 6.16129313e-11
 6.16129313e-11
 6.16129313e-11
 6.16129313e-11
 6.16129313e-11
 6.16129313e-11
 6.16129313e-11
 6.16129313e-11
 6.16129313e-11
 6.16129313e-11
 6.16129313e-11
 6.16129313e-11
 6.16129313e-11
 6.16129313e-11
 3.85262479e-11
 3.85262479e-11
 3.85262479e-11
 3.85262479e-11
 3.85262479e-11
 3.85262479e-11
 3.85262479e-11
 3.85262479e-11
 3.85262479e-11
 3.85262479e-11
 3.85262479e-11
 5.90793612e-12
 5.90793612e-12
 3.26644372e-12
 3.26644372e-12
 3.26644372e-12
 3.26644372e-12
 3.26644372e-12
 3.26644372e-12
 3.26644372e-12
 3.65065041e-12
 3.65065041e-12
 3.65065041e-12
 3.65065041e-12
 3.65065041e-12
 1.88016890e-12
 1.88016890e-12
 1.21964122e-12
 1.21964122e-12
 6.09065603e-13
)
)
1
(
101
(
 2.00426536e-10
 2.00426536e-10
 2.00426536e-10
 2.00426536e-10
 2.00426536e-10
 2.00426536e-10
 2.00426536e-10
 2.00426536e-10
 2.00426536e-10
 2.00426536e-10
 2.00426536e-10
 2.00426536e-10
 2.00426536e-10
 2.00426536e-10
 2.00426536e-10
 2.00426536e-10
 2.00426536e-10
 2.00426536e-10
 2.00426536e-10
 2.00426536e-10
 2.00426536e-10
 2.00426536e-10
 2.00426536e-10
 2.00426536e-10
 2.00426536e-10
 2.00426536e-10
 2.45352313e-08
 2.45352313e-08
 2.45352313e-08
 2.45352313e-08
 2.45352313e-08
 2.45352313e-08
 2.45352313e-08
 2.45352313e-08
 2.45352313e-08
 2.45352313e-08
 2.45352313e-08
 2.45352313e-08
 2.45352313e-08
 2.45352313e-08
 2.45352313e-08
 2.45352313e-08
 2.45352313e-08
 3.44553995e-11
 3.44553995e-11
 3.44553995e-11
 3.44553995e-11
 3.44553995e-11
 3.44553995e-11
 3.44553995e-11
 2.31496322e-11
 2.31496322e-11
 2.31496322e-11
 2.31496322e-11
 2.31496322e-11
 2.31496322e-11
 2.31496322e-11
 6.16129313e-11
 6.16129313e-11
 6.16129313e-11
 6.16129313e-11
 6.16129313e-11
 6.16129313e-11
 6.16129313e-11
 6.16129313e-11
 6.16129313e-11
 6.16129313e-11
 6.16129313e-11
 6.16129313e-11
 6.16129313e-11
 6.16129313e-11
 6.16129313e-11
 3.85262479e-11
 3.85262479e-11
 3.85262479e-11
 3.85262479e-11
 3.85262479e-11
 3.85262479e-11
 3.85262479e-11
 3.85262479e-11
 3.85262479e-11
 3.85262479e-11
 3.85262479e-11
 5.90793612e-12
 5.90793612e-12
 5.90793612e-12
 3.26644372e-12
 3.26644372e-12
 3.26644372e-12
 3.26644372e-12
 3.26644372e-12
 3.26644372e-12
 3.64840711e-12
 3.65065041e-12
 3.65065041e-12
 3.65065041e-12
 1.21983894e-12
 1.21983894e-12
 1.21983894e-12
 1.21964122e-12
 1.21964122e-12
)
)
1
(
101
(
 3.45471535e-10
 3.45471535e-10
 3.45471535e-10
 3.45471535e-10
 3.45471535e-10
 3.45471535e-10
 3.45471535e-10
 3.45471535e-10
 3.45471535e-10
 3.45471535e-10
 3.45471535e-10
 3.45471535e-10
 3.45471535e-10
 3.45471535e-10
 3.45471535e-10
 3.45471535e-10
 3.45471535e-10
 3.45471535e-10
 3.45471535e-10
 2.45352313e-08
 2.45352313e-08
 2.45352313e-08
 2.45352313e-08
 2.45352313e-08
 2.45352313e-08
 2.45352313e-08
 2.45352313e-08
 2.45352313e-08
 2.45352313e-08
 2.45352313e-08
 2.45352313e-08
 2.45352313e-08
 2.45352313e-08
 2.45352313e-08
 2.45352313e-08
 2.45352313e-08
 2.45352313e-08
 2.45352313e-08
 2.45352313e-08
 2.45352313e-08
 2.45352313e-08
 2.45352313e-08
 3.44553995e-11
 3.44553995e-11
 3.44553995e-11
 3.44553995e-11
 3.44553995e-11
 3.44553995e-11
 3.44553995e-11
 3.44553995e-11
 3.44553995e-11
 2.31496322e-11
 2.31496322e-11
 2.31496322e-11
 2.31496322e-11
 2.31496322e-11
 2.31496322e-11
 2.31496322e-11
 2.31496322e-11
 6.16129313e-11
 6.16129313e-11
 6.16129313e-11
 6.16129313e-11
 6.16129313e-11
 6.16129313e-11
 6.16129313e-11
 6.16129313e-11
 6.16129313e-11
 6.16129313e-11
 6.16129313e-11
 6.16129313e-11
 6.16129313e-11
 6.16129313e-11
 3.85262479e-11
 3.85262479e-11
 3.85262479e-11
 3.85262479e-11
 3.85262479e-11
 3.85262479e-11
 3.85262479e-11
 3.85262479e-11
 3.85262479e-11
 3.85262479e-11
 3.85262479e-11
 5.90793612e-12
 5.90793612e-12
 5.90793612e-12
 3.26644372e-12
 3.26644372e-12
 3.26644372e-12
 3.26644372e-12
 3.26644372e-12
 3.26644372e-12
 3.64840711e-12
 3.64840711e-12
 1.17526509e-12
 1.17526509e-12
 1.21983894e-12
 1.21983894e-12
 1.21983894e-12
 1.21983894e-12
)
)
1
(
101
(
 8.25934657e-10
 8.25934657e-10
 8.25934657e-10
 8.25934657e-10
 8.25934657e-10
 8.25934657e-10
 8.25934657e-10
 8.25934657e-10
 8.25934657e-10
 8.25934657e-10
 8.25934657e-10
 8.25934657e-10
 8.25934657e-10
 8.25934657e-10
 2.45352313e-08
 2.45352313e-08
 2.45352313e-08
 2.45352313e-08
 2.45352313e-08
 2.45352313e-08
 2.45352313e-08
 2.45352313e-08
 2.45352313e-08
 2.45352313e-08
 2.45352313e-08
 2.45352313e-08
 2.45352313e-08
 2.45352313e-08
 2.45352313e-08
 2.45352313e-08
 2.45352313e-08
 2.45352313e-08
 2.45352313e-08
 2.45352313e-08
 2.45352313e-08
 2.45352313e-08
 2.45352313e-08
 2.45352313e-08
 2.45352313e-08
 2.45352313e-08
 2.45352313e-08
 2.45352313e-08
 3.44553995e-11
 3.44553995e-11
 3.44553995e-11
 3.44553995e-11
 3.44553995e-11
 3.44553995e-11
 3.44553995e-11
 3.44553995e-11
 3.44553995e-11
 3.44553995e-11
 2.31496322e-11
 2.31496322e-11
 2.31496322e-11
 2.31496322e-11
 2.31496322e-11
 2.31496322e-11
 2.31496322e-11
 2.31496322e-11
 6.16129313e-11
 6.16129313e-11
 6.16129313e-11
 6.16129313e-11
 6.16129313e-11
 6.16129313e-11
 6.16129313e-11
 6.16129313e-11
 6.16129313e-11
 6.16129313e-11
 6.16129313e-11
 6.16129313e-11
 6.16129313e-11
 6.16129313e-11
 6.16129313e-11
 3.85262479e-11
 3.85262479e-11
 3.85262479e-11
 3.85262479e-11
 3.85262479e-11
 3.85262479e-11
 3.85262479e-11
 3.85262479e-11
 3.85262479e-11
 3.85262479e-11
 5.90793612e-12
 5.90793612e-12
 5.90793612e-12
 5.90793612e-12
 3.26644372e-12
 3.26644372e-12
 3.26644372e-12
 3.26644372e-12
 3.26644372e-12
 3.64840711e-12
 3.64840711e-12
 1.17526509e-12
 1.17526509e-12
 1.21983894e-12
 1.21983894e-12
 1.21983894e-12
)
)
1
(
101
(
 1.55108527e-09
 1.55108527e-09
 1.55108527e-09
 1.55108527e-09
 1.55108527e-09
 1.55108527e-09
 1.55108527e-09
 1.55108527e-09
 1.55108527e-09
 2.45352313e-08
 2.45352313e-08
 2.45352313e-08
 2.45352313e-08
 2.45352313e-08
 2.45352313e-08
 2.45352313e-08
 2.45352313e-08
 2.45352313e-08
 2.45352313e-08
 2.45352313e-08
 2.45352313e-08
 2.45352313e-08
 2.45352313e-08
 2.45352313e-08
 2.45352313e-08
 2.45352313e-08
 2.45352313e-08
 2.45352313e-08
 2.45352313e-08
 2.45352313e-08
 2.45352313e-08
 2.45352313e-08
 2.45352313e-08
 2.45352313e-08
 2.45352313e-08
 2.45352313e-08
 2.45352313e-08
 2.45352313e-08
 2.45352313e-08
 2.45352313e-08
 2.45352313e-08
 2.45352313e-08
 3.44553995e-11
 3.44553995e-11
 3.44553995e-11
 3.44553995e-11
 3.44553995e-11
 3.44553995e-11
 3.44553995e-11
 3.44553995e-11
 3.44553995e-11
 3.44553995e-11
 3.44553995e-11
 3.44553995e-11
 2.31496322e-11
 2.31496322e-11
 2.31496322e-11
 2.31496322e-11
 2.31496322e-11
 2.31496322e-11
 2.31496322e-11
 2.31496322e-11
 6.16129313e-11
 6.16129313e-11
 6.16129313e-11
 6.16129313e-11
 6.16129313e-11
 6.16129313e-11
 6.16129313e-11
 6.16129313e-11
 6.16129313e-11
 6.16129313e-11
 6.16129313e-11
 6.16129313e-11
 6.16129313e-11
 6.16129313e-11
 3.85262479e-11
 3.85262479e-11
 3.85262479e-11
 3.85262479e-11
 3.85262479e-11
 3.85262479e-11
 3.85262479e-11
 3.85262479e-11
 3.85262479e-11
 3.85262479e-11
 5.90793612e-12
 5.90793612e-12
 5.90793612e-12
 5.90793612e-12
 3.23332876e-12
 3.26644372e-12
 3.26644372e-12
 3.26644372e-12
 3.26644372e-12
 3.64840711e-12
 3.64840711e-12
 1.17526509e-12
 1.17526509e-12
 1.21983894e-12
 1.21983894e-12
)
)
1
(
101
(
 2.64734083e-09
 2.64734083e-09
 2.64734083e-09
 2.64734083e-09
 2.64734083e-09
 2.64734083e-09
 2.45352313e-08
 2.45352313e-08
 2.45352313e-08
 2.45352313e-08
 2.45352313e-08
 2.45352313e-08
 2.45352313e-08
 2.45352313e-08
 2.45352313e-08
 2.45352313e-08
 2.45352313e-08
 2.45352313e-08
 2.45352313e-08
 2.45352313e-08
 2.45352313e-08
 2.45352313e-08
 2.45352313e-08
 2.45352313e-08
 2.45352313e-08
 2.45352313e-08
 2.45352313e-08
 2.45352313e-08
 2.45352313e-08
 2.45352313e-08
 2.45352313e-08
 2.45352313e-08
 2.45352313e-08
 2.45352313e-08
 2.45352313e-08
 2.45352313e-08
 2.45352313e-08
 2.45352313e-08
 2.45352313e-08
 2.45352313e-08
 2.45352313e-08
 2.45352313e-08
 3.44553995e-11
 3.44553995e-11
 3.44553995e-11
 3.44553995e-11
 3.44553995e-11
 3.44553995e-11
 3.44553995e-11
 3.44553995e-11
 3.44553995e-11
 3.44553995e-11
 3.44553995e-11
 3.44553995e-11
 3.44553995e-11
 2.31496322e-11
 2.31496322e-11
 2.31496322e-11
 2.31496322e-11
 2.31496322e-11
 2.31496322e-11
 2.31496322e-11
 2.31496322e-11
 6.16129313e-11
 6.16129313e-11
 6.16129313e-11
 6.16129313e-11
 6.16129313e-11
 6.16129313e-11
 6.16129313e-11
 6.16129313e-11
 6.16129313e-11
 6.16129313e-11
 6.16129313e-11
 6.16129313e-11
 6.16129313e-11
 6.16129313e-11
 3.85262479e-11
 3.85262479e-11
 3.85262479e-11
 3.85262479e-11
 3.85262479e-11
 3.85262479e-11
 3.85262479e-11
 3.85262479e-11
 3.85262479e-11
 3.85262479e-11
 5.90793612e-12
 5.90793612e-12
 5.90793612e-12
 5.90793612e-12
 3.23332876e-12
 3.23332876e-12
 2.00991875e-12
 2.00991875e-12
 2.00991875e-12
 3.64840711e-12
 3.64840711e-12
 1.17526509e-12
 1.17526509e-12
 1.21983894e-12
)
)
1
(
101
(
 5.05661836e-09
 5.05661836e-09
 5.05661836e-09
 2.45352313e-08
 2.45352313e-08
 2.45352313e-08
 2.45352313e-08
 2.45352313e-08
 2.45352313e-08
 2.45352313e-08
 2.45352313e-08
 2.45352313e-08
 2.45352313e-08
 2.45352313e-08
 2.45352313e-08
 2.45352313e-08
 2.45352313e-08
 2.45352313e-08
 2.45352313e-08
 2.45352313e-08
 2.45352313e-08
 2.45352313e-08
 2.45352313e-08
 2.45352313e-08
 2.45352313e-08
 2.45352313e-08
 2.45352313e-08
 2.45352313e-08
 2.45352313e-08
 2.45352313e-08
 2.45352313e-08
 2.45352313e-08
 2.45352313e-08
 2.45352313e-08
 2.45352313e-08
 2.45352313e-08
 2.45352313e-08
 2.45352313e-08
 2.45352313e-08
 2.45352313e-08
 2.45352313e-08
 3.19514878e-11
 3.44553995e-11
 3.44553995e-11
 3.44553995e-11
 3.44553995e-11
 3.44553995e-11
 3.44553995e-11
 3.44553995e-11
 3.44553995e-11
 3.44553995e-11
 3.44553995e-11
 3.44553995e-11
 3.44553995e-11
 3.44553995e-11
 3.44553995e-11
 2.31496322e-11
 2.31496322e-11
 2.31496322e-11
 2.31496322e-11
 2.31496322e-11
 2.31496322e-11
 2.31496322e-11
 2.31496322e-11
 2.31496322e-11
 6.16129313e-11
 6.16129313e-11
 6.16129313e-11
 6.16129313e-11
 6.16129313e-11
 6.16129313e-11
 6.16129313e-11
 6.16129313e-11
 6.16129313e-11
 6.16129313e-11
 6.16129313e-11
 6.16129313e-11
 6.16129313e-11
 3.85262479e-11
 3.85262479e-11
 3.85262479e-11
 3.85262479e-11
 3.85262479e-11
 3.85262479e-11
 3.85262479e-11
 3.85262479e-11
 3.85262479e-11
 3.85262479e-11
 5.90793612e-12
 5.90793612e-12
 5.90793612e-12
 5.90793612e-12
 3.23332876e-12
 3.23332876e-12
 2.00991875e-12
 2.00991875e-12
 2.00991875e-12
 2.00991875e-12
 3.64840711e-12
 1.17526509e-12
 1.17526509e-12
)
)
1
(
101
(
 4.98878041e-09
 4.98878041e-09
 2.45352313e-08
 2.45352313e-08
 2.45352313e-08
 2.45352313e-08
 2.45352313e-08
 2.45352313e-08
 2.45352313e-08
 2.45352313e-08
 2.45352313e-08
 2.45352313e-08
 2.45352313e-08
 2.45352313e-08
 2.45352313e-08
 2.45352313e-08
 2.45352313e-08
 2.45352313e-08
 2.45352313e-08
 2.45352313e-08
 2.45352313e-08
 2.45352313e-08
 2.45352313e-08
 2.45352313e-08
 2.45352313e-08
 2.45352313e-08
 2.45352313e-08
 2.45352313e-08
 2.45352313e-08
 2.45352313e-08
 2.45352313e-08
 2.45352313e-08
 2.45352313e-08
 2.45352313e-08
 2.45352313e-08
 2.45352313e-08
 2.45352313e-08
 2.45352313e-08
 2.45352313e-08
 2.45352313e-08
 2.45352313e-08
 3.19514878e-11
 3.19514878e-11
 3.44553995e-11
 3.44553995e-11
 3.44553995e-11
 3.44553995e-11
 3.44553995e-11
 3.44553995e-11
 3.44553995e-11
 3.44553995e-11
 3.44553995e-11
 3.44553995e-11
 3.44553995e-11
 3.44553995e-11
 3.44553995e-11
 3.44553995e-11
 2.31496322e-11
 2.31496322e-11
 2.31496322e-11
 2.31496322e-11
 2.31496322e-11
 2.31496322e-11
 2.31496322e-11
 2.31496322e-11
 2.31496322e-11
 6.16129313e-11
 6.16129313e-11
 6.16129313e-11
 6.16129313e-11
 6.16129313e-11
 6.16129313e-11
 6.16129313e-11
 6.16129313e-11
 6.16129313e-11
 6.16129313e-11
 6.16129313e-11
 6.16129313e-11
 6.16129313e-11
 6.16129313e-11
 3.85262479e-11
 3.85262479e-11
 3.85262479e-11
 3.85262479e-11
 3.85262479e-11
 3.85262479e-11
 3.85262479e-11
 3.85262479e-11
 4.41095905e-12
 5.90793612e-12
 5.90793612e-12
 5.90793612e-12
 4.96375096e-14
 4.96375096e-14
 4.96375096e-14
 2.00991875e-12
 2.00991875e-12
 2.00991875e-12
 2.00991875e-12
 2.00991875e-12
 1.17526509e-12
)
)
1
(
101
(
 1.20972690e-10
 2.45352313e-08
 2.45352313e-08
 2.45352313e-08
 2.45352313e-08
 2.45352313e-08
 2.45352313e-08
 2.45352313e-08
 2.45352313e-08
 2.45352313e-08
 2.45352313e-08
 2.45352313e-08
 2.45352313e-08
 2.45352313e-08
 2.45352313e-08
 2.45352313e-08
 2.45352313e-08
 2.45352313e-08
 2.45352313e-08
 2.45352313e-08
 2.45352313e-08
 2.45352313e-08
 2.45352313e-08
 2.45352313e-08
 2.45352313e-08
 2.45352313e-08
 2.45352313e-08
 2.45352313e-08
 2.45352313e-08
 2.45352313e-08
 2.45352313e-08
 2.45352313e-08
 2.45352313e-08
 2.45352313e-08
 2.45352313e-08
 2.45352313e-08
 2.45352313e-08
 2.45352313e-08
 2.45352313e-08
 2.45352313e-08
 3.19514878e-11
 3.19514878e-11
 3.19514878e-11
 3.19514878e-11
 3.44553995e-11
 3.44553995e-11
 3.44553995e-11
 3.44553995e-11
 3.44553995e-11
 3.44553995e-11
 3.44553995e-11
 3.44553995e-11
 3.44553995e-11
 3.44553995e-11
 3.44553995e-11
 3.44553995e-11
 3.44553995e-11
 3.44553995e-11
 2.31496322e-11
 2.31496322e-11
 2.31496322e-11
 2.31496322e-11
 2.31496322e-11
 2.31496322e-11
 2.31496322e-11
 2.31496322e-11
 2.31496322e-11
 2.31496322e-11
 6.16129313e-11
 6.16129313e-11
 6.16129313e-11
 6.16129313e-11
 6.16129313e-11
 6.16129313e-11
 6.16129313e-11
 6.16129313e-11
 6.16129313e-11
 6.16129313e-11
 6.16129313e-11
 6.16129313e-11
 6.16129313e-11
 1.22681184e-11
 3.85262479e-11
 3.85262479e-11
 3.85262479e-11
 3.85262479e-11
 3.85262479e-11
 3.85262479e-11
 3.85262479e-11
 4.41095905e-12
 4.41095905e-12
 1.10874616e-12
 1.10874616e-12
 4.96375096e-14
 4.96375096e-14
 4.96375096e-14
 4.96375096e-14
 2.00991875e-12
 2.00991875e-12
 2.00991875e-12
 2.00991875e-12
)
)
1
(
101
(
 1.20972690e-10
 1.98190255e-08
 1.98190255e-08
 1.98190255e-08
 1.98190255e-08
 1.98190255e-08
 1.98190255e-08
 1.98190255e-08
 1.98190255e-08
 1.98190255e-08
 1.98190255e-08
 1.98190255e-08
 1.98190255e-08
 1.98190255e-08
 1.98190255e-08
 1.98190255e-08
 1.98190255e-08
 1.98190255e-08
 1.98190255e-08
 1.98190255e-08
 1.98190255e-08
 1.98190255e-08
 1.98190255e-08
 1.98190255e-08
 1.98190255e-08
 1.98190255e-08
 1.98190255e-08
 1.98190255e-08
 1.98190255e-08
 1.98190255e-08
 1.98190255e-08
 1.98190255e-08
 1.98190255e-08
 1.98190255e-08
 1.98190255e-08
 1.98190255e-08
 1.98190255e-08
 1.98190255e-08
 1.98190255e-08
 1.98190255e-08
 3.19514878e-11
 3.19514878e-11
 3.19514878e-11
 3.19514878e-11
 3.19514878e-11
 3.44553995e-11
 3.44553995e-11
 3.44553995e-11
 3.44553995e-11
 3.44553995e-11
 3.44553995e-11
 3.44553995e-11
 3.44553995e-11
 3.44553995e-11
 3.44553995e-11
 3.44553995e-11
 3.44553995e-11
 3.44553995e-11
 3.44553995e-11
 2.31496322e-11
 2.31496322e-11
 2.31496322e-11
 2.31496322e-11
 2.31496322e-11
 2.31496322e-11
 2.31496322e-11
 2.31496322e-11
 2.31496322e-11
 2.31496322e-11
 6.16129313e-11
 6.16129313e-11
 6.16129313e-11
 6.16129313e-11
 6.16129313e-11
 6.16129313e-11
 6.16129313e-11
 6.16129313e-11
 6.16129313e-11
 6.16129313e-11
 6.16129313e-11
 6.16129313e-11
 6.16129313e-11
 1.22681184e-11
 1.22681184e-11
 3.85262479e-11
 3.85262479e-11
 3.85262479e-11
 3.85262479e-11
 3.85262479e-11
 4.41095905e-12
 4.41095905e-12
 4.41095905e-12
 1.10874616e-12
 1.10874616e-12
 4.96375096e-14
 4.96375096e-14
 4.96375096e-14
 4.96375096e-14
 4.96375096e-14
 2.00991875e-12
 2.00991875e-12
)
)
1
(
101
(
 3.58272410e-08
 3.58272410e-08
 3.58272410e-08
 3.58272410e-08
 3.58272410e-08
 3.58272410e-08
 3.58272410e-08
 3.58272410e-08
 3.58272410e-08
 3.58272410e-08
 3.58272410e-08
 3.58272410e-08
 3.58272410e-08
 3.58272410e-08
 3.58272410e-08
 3.58272410e-08
 3.58272410e-08
 3.58272410e-08
 3.58272410e-08
 3.58272410e-08
 3.58272410e-08
 3.58272410e-08
 3.58272410e-08
 3.58272410e-08
 3.58272410e-08
 3.58272410e-08
 3.58272410e-08
 3.58272410e-08
 3.58272410e-08
 3.58272410e-08
 3.58272410e-08
 3.58272410e-08
 3.58272410e-08
 3.58272410e-08
 3.58272410e-08
 3.58272410e-08
 3.58272410e-08
 3.58272410e-08
 3.58272410e-08
 3.58272410e-08
 3.19514878e-11
 3.19514878e-11
 3.19514878e-11
 3.19514878e-11
 3.19514878e-11
 3.19514878e-11
 3.44553995e-11
 3.44553995e-11
 3.44553995e-11
 3.44553995e-11
 3.44553995e-11
 3.44553995e-11
 3.44553995e-11
 3.44553995e-11
 3.44553995e-11
 3.44553995e-11
 3.44553995e-11
 3.44553995e-11
 3.44553995e-11
 3.44553995e-11
 3.44553995e-11
 2.31496322e-11
 2.31496322e-11
 2.31496322e-11
 2.31496322e-11
 2.31496322e-11
 2.31496322e-11
 2.31496322e-11
 2.31496322e-11
 2.31496322e-11
 2.31496322e-11
 6.16129313e-11
 6.16129313e-11
 6.16129313e-11
 6.16129313e-11
 6.16129313e-11
 6.16129313e-11
 6.16129313e-11
 6.16129313e-11
 6.16129313e-11
 6.16129313e-11
 6.16129313e-11
 6.16129313e-11
 1.22681184e-11
 1.22681184e-11
 1.22681184e-11
 3.85262479e-11
 3.85262479e-11
 3.85262479e-11
 3.85262479e-11
 4.41095905e-12
 4.41095905e-12
 4.41095905e-12
 1.10874616e-12
 1.10874616e-12
 4.96375096e-14
 4.96375096e-14
 4.96375096e-14
 4.96375096e-14
 4.96375096e-14
 4.96375096e-14
)
)
1
(
101
(
 5.79854098e-08
 5.79854098e-08
 5.79854098e-08
 5.79854098e-08
 5.79854098e-08
 5.79854098e-08
 5.79854098e-08
 5.79854098e-08
 5.79854098e-08
 5.79854098e-08
 5.79854098e-08
 5.79854098e-08
 5.79854098e-08
 5.79854098e-08
 5.79854098e-08
 5.79854098e-08
 5.79854098e-08
 5.79854098e-08
 5.79854098e-08
 5.79854098e-08
 5.79854098e-08
 5.79854098e-08
 5.79854098e-08
 5.79854098e-08
 5.79854098e-08
 5.79854098e-08
 5.79854098e-08
 5.79854098e-08
 5.79854098e-08
 5.79854098e-08
 5.79854098e-08
 5.79854098e-08
 5.79854098e-08
 5.79854098e-08
 5.79854098e-08
 5.79854098e-08
 5.79854098e-08
 5.79854098e-08
 5.79854098e-08
 3.19514878e-11
 3.19514878e-11
 3.19514878e-11
 3.19514878e-11
 3.19514878e-11
 3.19514878e-11
 3.19514878e-11
 3.19514878e-11
 3.19514878e-11
 3.44553995e-11
 3.44553995e-11
 3.44553995e-11
 3.44553995e-11
 3.44553995e-11
 3.44553995e-11
 3.44553995e-11
 3.44553995e-11
 3.44553995e-11
 3.44553995e-11
 3.44553995e-11
 3.44553995e-11
 3.44553995e-11
 3.44553995e-11
 2.31496322e-11
 2.31496322e-11
 2.31496322e-11
 2.31496322e-11
 2.31496322e-11
 2.31496322e-11
 2.31496322e-11
 2.31496322e-11
 2.31496322e-11
 2.31496322e-11
 6.16129313e-11
 6.16129313e-11
 6.16129313e-11
 6.16129313e-11
 6.16129313e-11
 6.16129313e-11
 6.16129313e-11
 6.16129313e-11
 6.16129313e-11
 6.16129313e-11
 6.16129313e-11
 6.16129313e-11
 1.22681184e-11
 1.22681184e-11
 1.22681184e-11
 1.22681184e-11
 6.68749939e-12
 6.68749939e-12
 6.68749939e-12
 4.41095905e-12
 4.41095905e-12
 4.41095905e-12
 1.10874616e-12
 1.10874616e-12
 4.96375096e-14
 4.96375096e-14
 4.96375096e-14