/*--------------------------------*- C++ -*----------------------------------*\
| =========                 |                                                 |
| \\      /  F ield        | OpenFOAM: The Open Source CFD Toolbox           |
|  \\    /   O peration    | Version:  7                                     |
|   \\  /    A nd          | Web:      http://www.OpenFOAM.com               |
|    \\/     M anipulation |                                                 |
\*---------------------------------------------------------------------------*/

FoamFile
{
    version     2.0;
    format      ascii;
    class       dictionary;
    object      Y_HCNN_table;
}

Y_HCNN_table
2
(
101
(
1
(
101
(
 3.84211870e-28
 3.84211870e-28
 3.84211870e-28
 3.84211870e-28
 3.84211870e-28
 3.84211870e-28
 3.84211870e-28
 3.84211870e-28
 3.84211870e-28
 3.84211870e-28
 3.84211870e-28
 3.84211870e-28
 3.84211870e-28
 3.84211870e-28
 3.84211870e-28
 3.84211870e-28
 3.84211870e-28
 3.84211870e-28
 3.84211870e-28
 3.84211870e-28
 3.84211870e-28
 3.84211870e-28
 3.84211870e-28
 3.84211870e-28
 3.84211870e-28
 3.84211870e-28
 3.84211870e-28
 3.84211870e-28
 3.84211870e-28
 3.84211870e-28
 3.84211870e-28
 3.84211870e-28
 3.84211870e-28
 3.84211870e-28
 3.84211870e-28
 3.84211870e-28
 3.84211870e-28
 3.84211870e-28
 3.84211870e-28
 3.84211870e-28
 3.84211870e-28
 3.84211870e-28
 3.84211870e-28
 3.84211870e-28
 3.84211870e-28
 1.11350781e-19
 1.11350781e-19
 5.17394944e-20
 5.17394944e-20
 5.17394944e-20
 5.17394944e-20
 5.17394944e-20
 5.17394944e-20
 5.17394944e-20
 5.17394944e-20
 5.17394944e-20
 5.17394944e-20
 5.17394944e-20
 5.17394944e-20
 5.17394944e-20
 5.17394944e-20
 5.17394944e-20
 5.17394944e-20
 1.92369821e-20
 1.92369821e-20
 1.92369821e-20
 1.92369821e-20
 1.92369821e-20
 1.92369821e-20
 1.92369821e-20
 1.92369821e-20
 1.92369821e-20
 1.92369821e-20
 1.92369821e-20
 1.92369821e-20
 1.37595168e-20
 1.37595168e-20
 1.37595168e-20
 1.37595168e-20
 1.37595168e-20
 1.37595168e-20
 1.37595168e-20
 1.12121879e-19
 1.12121879e-19
 1.12121879e-19
 1.12121879e-19
 1.12121879e-19
 1.12121879e-19
 3.09770818e-17
 3.09770818e-17
 3.09770818e-17
 3.09770818e-17
 3.09770818e-17
 3.09770818e-17
 3.09770818e-17
 1.33812075e-15
 1.33812075e-15
 1.33812075e-15
 1.33812075e-15
 1.33812075e-15
 2.15034991e-15
)
)
1
(
101
(
 1.99635605e-26
 1.99635605e-26
 1.99635605e-26
 1.99635605e-26
 1.99635605e-26
 1.99635605e-26
 1.99635605e-26
 1.99635605e-26
 1.99635605e-26
 1.99635605e-26
 1.99635605e-26
 1.99635605e-26
 1.99635605e-26
 1.99635605e-26
 1.99635605e-26
 1.99635605e-26
 1.99635605e-26
 1.99635605e-26
 1.99635605e-26
 1.99635605e-26
 1.99635605e-26
 1.99635605e-26
 1.99635605e-26
 1.99635605e-26
 1.99635605e-26
 1.99635605e-26
 1.99635605e-26
 1.99635605e-26
 1.99635605e-26
 1.99635605e-26
 1.99635605e-26
 1.99635605e-26
 1.99635605e-26
 1.99635605e-26
 1.99635605e-26
 1.99635605e-26
 1.99635605e-26
 1.99635605e-26
 1.99635605e-26
 1.99635605e-26
 1.99635605e-26
 1.99635605e-26
 1.99635605e-26
 1.99635605e-26
 1.99635605e-26
 1.11350781e-19
 1.11350781e-19
 1.11350781e-19
 5.17394944e-20
 5.17394944e-20
 5.17394944e-20
 5.17394944e-20
 5.17394944e-20
 5.17394944e-20
 5.17394944e-20
 5.17394944e-20
 5.17394944e-20
 5.17394944e-20
 5.17394944e-20
 5.17394944e-20
 5.17394944e-20
 5.17394944e-20
 5.17394944e-20
 5.17394944e-20
 5.17394944e-20
 1.92369821e-20
 1.92369821e-20
 1.92369821e-20
 1.92369821e-20
 1.92369821e-20
 1.92369821e-20
 1.92369821e-20
 1.92369821e-20
 1.92369821e-20
 1.92369821e-20
 1.92369821e-20
 1.92369821e-20
 1.37595168e-20
 1.37595168e-20
 1.37595168e-20
 1.37595168e-20
 1.37595168e-20
 1.37595168e-20
 1.12121879e-19
 1.12121879e-19
 1.12121879e-19
 1.12121879e-19
 1.12121879e-19
 1.12121879e-19
 1.12121879e-19
 3.09770818e-17
 3.09770818e-17
 3.09770818e-17
 3.09770818e-17
 3.09770818e-17
 3.09770818e-17
 9.12351415e-16
 1.33812075e-15
 1.33812075e-15
 1.33812075e-15
 1.01080217e-14
)
)
1
(
101
(
 1.36530607e-25
 1.36530607e-25
 1.36530607e-25
 1.36530607e-25
 1.36530607e-25
 1.36530607e-25
 1.36530607e-25
 1.36530607e-25
 1.36530607e-25
 1.36530607e-25
 1.36530607e-25
 1.36530607e-25
 1.36530607e-25
 1.36530607e-25
 1.36530607e-25
 1.36530607e-25
 1.36530607e-25
 1.36530607e-25
 1.36530607e-25
 1.36530607e-25
 1.36530607e-25
 1.36530607e-25
 1.36530607e-25
 1.36530607e-25
 1.36530607e-25
 1.36530607e-25
 1.36530607e-25
 1.36530607e-25
 1.36530607e-25
 1.36530607e-25
 1.36530607e-25
 1.36530607e-25
 1.36530607e-25
 1.36530607e-25
 1.36530607e-25
 1.36530607e-25
 1.36530607e-25
 1.36530607e-25
 1.36530607e-25
 1.36530607e-25
 1.36530607e-25
 1.36530607e-25
 1.36530607e-25
 1.36530607e-25
 1.11350781e-19
 1.11350781e-19
 1.11350781e-19
 1.11350781e-19
 1.11350781e-19
 1.11350781e-19
 5.17394944e-20
 5.17394944e-20
 5.17394944e-20
 5.17394944e-20
 5.17394944e-20
 5.17394944e-20
 5.17394944e-20
 5.17394944e-20
 5.17394944e-20
 5.17394944e-20
 5.17394944e-20
 5.17394944e-20
 5.17394944e-20
 5.17394944e-20
 5.17394944e-20
 5.17394944e-20
 1.92369821e-20
 1.92369821e-20
 1.92369821e-20
 1.92369821e-20
 1.92369821e-20
 1.92369821e-20
 1.92369821e-20
 1.92369821e-20
 1.92369821e-20
 1.92369821e-20
 1.92369821e-20
 1.92369821e-20
 1.37595168e-20
 1.37595168e-20
 1.37595168e-20
 1.37595168e-20
 1.37595168e-20
 1.37595168e-20
 1.37595168e-20
 1.12121879e-19
 1.12121879e-19
 1.12121879e-19
 1.12121879e-19
 1.12121879e-19
 1.12121879e-19
 3.09770818e-17
 3.09770818e-17
 3.09770818e-17
 3.09770818e-17
 3.09770818e-17
 3.09770818e-17
 9.12351415e-16
 9.12351415e-16
 4.55223821e-15
 4.55223821e-15
)
)
1
(
101
(
 5.86043922e-25
 5.86043922e-25
 5.86043922e-25
 5.86043922e-25
 5.86043922e-25
 5.86043922e-25
 5.86043922e-25
 5.86043922e-25
 5.86043922e-25
 5.86043922e-25
 5.86043922e-25
 5.86043922e-25
 5.86043922e-25
 5.86043922e-25
 5.86043922e-25
 5.86043922e-25
 5.86043922e-25
 5.86043922e-25
 5.86043922e-25
 5.86043922e-25
 5.86043922e-25
 5.86043922e-25
 5.86043922e-25
 5.86043922e-25
 5.86043922e-25
 5.86043922e-25
 5.86043922e-25
 5.86043922e-25
 5.86043922e-25
 5.86043922e-25
 5.86043922e-25
 5.86043922e-25
 5.86043922e-25
 5.86043922e-25
 5.86043922e-25
 5.86043922e-25
 5.86043922e-25
 5.86043922e-25
 5.86043922e-25
 5.86043922e-25
 5.86043922e-25
 5.86043922e-25
 5.86043922e-25
 5.86043922e-25
 2.08755229e-19
 1.11350781e-19
 1.11350781e-19
 1.11350781e-19
 1.11350781e-19
 1.11350781e-19
 1.11350781e-19
 5.17394944e-20
 5.17394944e-20
 5.17394944e-20
 5.17394944e-20
 5.17394944e-20
 5.17394944e-20
 5.17394944e-20
 5.17394944e-20
 5.17394944e-20
 5.17394944e-20
 5.17394944e-20
 5.17394944e-20
 5.17394944e-20
 5.17394944e-20
 5.17394944e-20
 5.17394944e-20
 1.92369821e-20
 1.92369821e-20
 1.92369821e-20
 1.92369821e-20
 1.92369821e-20
 1.92369821e-20
 1.92369821e-20
 1.92369821e-20
 1.92369821e-20
 1.92369821e-20
 1.92369821e-20
 1.92369821e-20
 4.51912943e-18
 1.37595168e-20
 1.37595168e-20
 1.37595168e-20
 1.37595168e-20
 1.37595168e-20
 1.37595168e-20
 1.12121879e-19
 1.12121879e-19
 1.12121879e-19
 1.12121879e-19
 1.12121879e-19
 1.12121879e-19
 1.12121879e-19
 3.09770818e-17
 3.09770818e-17
 3.09770818e-17
 3.09770818e-17
 3.09770818e-17
 9.12351415e-16
 1.17479690e-15
 1.17479690e-15
)
)
1
(
101
(
 3.02029319e-24
 3.02029319e-24
 3.02029319e-24
 3.02029319e-24
 3.02029319e-24
 3.02029319e-24
 3.02029319e-24
 3.02029319e-24
 3.02029319e-24
 3.02029319e-24
 3.02029319e-24
 3.02029319e-24
 3.02029319e-24
 3.02029319e-24
 3.02029319e-24
 3.02029319e-24
 3.02029319e-24
 3.02029319e-24
 3.02029319e-24
 3.02029319e-24
 3.02029319e-24
 3.02029319e-24
 3.02029319e-24
 3.02029319e-24
 3.02029319e-24
 3.02029319e-24
 3.02029319e-24
 3.02029319e-24
 3.02029319e-24
 3.02029319e-24
 3.02029319e-24
 3.02029319e-24
 3.02029319e-24
 3.02029319e-24
 3.02029319e-24
 3.02029319e-24
 3.02029319e-24
 3.02029319e-24
 3.02029319e-24
 3.02029319e-24
 3.02029319e-24
 3.02029319e-24
 3.02029319e-24
 3.02029319e-24
 2.08755229e-19
 2.08755229e-19
 2.08755229e-19
 1.11350781e-19
 1.11350781e-19
 1.11350781e-19
 1.11350781e-19
 1.11350781e-19
 1.11350781e-19
 5.17394944e-20
 5.17394944e-20
 5.17394944e-20
 5.17394944e-20
 5.17394944e-20
 5.17394944e-20
 5.17394944e-20
 5.17394944e-20
 5.17394944e-20
 5.17394944e-20
 5.17394944e-20
 5.17394944e-20
 5.17394944e-20
 5.17394944e-20
 5.17394944e-20
 1.92369821e-20
 1.92369821e-20
 1.92369821e-20
 1.92369821e-20
 1.92369821e-20
 1.92369821e-20
 1.92369821e-20
 1.92369821e-20
 1.92369821e-20
 1.92369821e-20
 1.92369821e-20
 1.92369821e-20
 4.51912943e-18
 1.37595168e-20
 1.37595168e-20
 1.37595168e-20
 1.37595168e-20
 1.37595168e-20
 1.37595168e-20
 1.37595168e-20
 1.12121879e-19
 1.12121879e-19
 1.12121879e-19
 1.12121879e-19
 1.12121879e-19
 1.12121879e-19
 7.76738971e-17
 3.09770818e-17
 3.09770818e-17
 3.09770818e-17
 4.01594081e-15
 4.01594081e-15
 1.17479690e-15
)
)
1
(
101
(
 8.08515415e-24
 8.08515415e-24
 8.08515415e-24
 8.08515415e-24
 8.08515415e-24
 8.08515415e-24
 8.08515415e-24
 8.08515415e-24
 8.08515415e-24
 8.08515415e-24
 8.08515415e-24
 8.08515415e-24
 8.08515415e-24
 8.08515415e-24
 8.08515415e-24
 8.08515415e-24
 8.08515415e-24
 8.08515415e-24
 8.08515415e-24
 8.08515415e-24
 8.08515415e-24
 8.08515415e-24
 8.08515415e-24
 8.08515415e-24
 8.08515415e-24
 8.08515415e-24
 8.08515415e-24
 8.08515415e-24
 8.08515415e-24
 8.08515415e-24
 8.08515415e-24
 8.08515415e-24
 8.08515415e-24
 8.08515415e-24
 8.08515415e-24
 8.08515415e-24
 8.08515415e-24
 8.08515415e-24
 8.08515415e-24
 8.08515415e-24
 8.08515415e-24
 8.08515415e-24
 8.35448836e-20
 2.08755229e-19
 2.08755229e-19
 2.08755229e-19
 2.08755229e-19
 2.08755229e-19
 1.11350781e-19
 1.11350781e-19
 1.11350781e-19
 1.11350781e-19
 1.11350781e-19
 1.11350781e-19
 5.17394944e-20
 5.17394944e-20
 5.17394944e-20
 5.17394944e-20
 5.17394944e-20
 5.17394944e-20
 5.17394944e-20
 5.17394944e-20
 5.17394944e-20
 5.17394944e-20
 5.17394944e-20
 5.17394944e-20
 5.17394944e-20
 5.17394944e-20
 5.17394944e-20
 5.17394944e-20
 1.92369821e-20
 1.92369821e-20
 1.92369821e-20
 1.92369821e-20
 1.92369821e-20
 1.92369821e-20
 1.92369821e-20
 1.92369821e-20
 1.92369821e-20
 1.92369821e-20
 1.92369821e-20
 4.51912943e-18
 4.51912943e-18
 1.37595168e-20
 1.37595168e-20
 1.37595168e-20
 1.37595168e-20
 1.37595168e-20
 1.37595168e-20
 1.12121879e-19
 1.12121879e-19
 1.12121879e-19
 1.12121879e-19
 1.12121879e-19
 1.12121879e-19
 7.76738971e-17
 7.76738971e-17
 3.86130984e-15
 3.86130984e-15
 4.01594081e-15
 4.01594081e-15
)
)
1
(
101
(
 4.47275038e-23
 4.47275038e-23
 4.47275038e-23
 4.47275038e-23
 4.47275038e-23
 4.47275038e-23
 4.47275038e-23
 4.47275038e-23
 4.47275038e-23
 4.47275038e-23
 4.47275038e-23
 4.47275038e-23
 4.47275038e-23
 4.47275038e-23
 4.47275038e-23
 4.47275038e-23
 4.47275038e-23
 4.47275038e-23
 4.47275038e-23
 4.47275038e-23
 4.47275038e-23
 4.47275038e-23
 4.47275038e-23
 4.47275038e-23
 4.47275038e-23
 4.47275038e-23
 4.47275038e-23
 4.47275038e-23
 4.47275038e-23
 4.47275038e-23
 4.47275038e-23
 4.47275038e-23
 4.47275038e-23
 8.35448836e-20
 8.35448836e-20
 8.35448836e-20
 8.35448836e-20
 8.35448836e-20
 8.35448836e-20
 8.35448836e-20
 8.35448836e-20
 8.35448836e-20
 8.35448836e-20
 2.08755229e-19
 2.08755229e-19
 2.08755229e-19
 2.08755229e-19
 2.08755229e-19
 2.08755229e-19
 1.11350781e-19
 1.11350781e-19
 1.11350781e-19
 1.11350781e-19
 1.11350781e-19
 1.11350781e-19
 1.11350781e-19
 5.17394944e-20
 5.17394944e-20
 5.17394944e-20
 5.17394944e-20
 5.17394944e-20
 5.17394944e-20
 5.17394944e-20
 5.17394944e-20
 5.17394944e-20
 5.17394944e-20
 5.17394944e-20
 5.17394944e-20
 5.17394944e-20
 5.17394944e-20
 5.17394944e-20
 1.92369821e-20
 1.92369821e-20
 1.92369821e-20
 1.92369821e-20
 1.92369821e-20
 1.92369821e-20
 1.92369821e-20
 1.92369821e-20
 1.92369821e-20
 1.92369821e-20
 1.92369821e-20
 4.51912943e-18
 4.51912943e-18
 1.37595168e-20
 1.37595168e-20
 1.37595168e-20
 1.37595168e-20
 1.37595168e-20
 1.37595168e-20
 1.37595168e-20
 1.12121879e-19
 1.12121879e-19
 1.12121879e-19
 1.12121879e-19
 1.12121879e-19
 7.76738971e-17
 7.76738971e-17
 3.86130984e-15
 3.86130984e-15
 4.01594081e-15
)
)
1
(
101
(
 1.19264602e-22
 1.19264602e-22
 1.19264602e-22
 1.19264602e-22
 1.19264602e-22
 1.19264602e-22
 1.19264602e-22
 1.19264602e-22
 1.19264602e-22
 1.19264602e-22
 1.19264602e-22
 1.19264602e-22
 1.19264602e-22
 1.19264602e-22
 1.19264602e-22
 1.19264602e-22
 1.19264602e-22
 1.19264602e-22
 1.19264602e-22
 1.19264602e-22
 1.19264602e-22
 1.19264602e-22
 1.19264602e-22
 1.19264602e-22
 1.19264602e-22
 1.19264602e-22
 8.35448836e-20
 8.35448836e-20
 8.35448836e-20
 8.35448836e-20
 8.35448836e-20
 8.35448836e-20
 8.35448836e-20
 8.35448836e-20
 8.35448836e-20
 8.35448836e-20
 8.35448836e-20
 8.35448836e-20
 8.35448836e-20
 8.35448836e-20
 8.35448836e-20
 8.35448836e-20
 8.35448836e-20
 2.08755229e-19
 2.08755229e-19
 2.08755229e-19
 2.08755229e-19
 2.08755229e-19
 2.08755229e-19
 2.08755229e-19
 1.11350781e-19
 1.11350781e-19
 1.11350781e-19
 1.11350781e-19
 1.11350781e-19
 1.11350781e-19
 1.11350781e-19
 5.17394944e-20
 5.17394944e-20
 5.17394944e-20
 5.17394944e-20
 5.17394944e-20
 5.17394944e-20
 5.17394944e-20
 5.17394944e-20
 5.17394944e-20
 5.17394944e-20
 5.17394944e-20
 5.17394944e-20
 5.17394944e-20
 5.17394944e-20
 5.17394944e-20
 1.92369821e-20
 1.92369821e-20
 1.92369821e-20
 1.92369821e-20
 1.92369821e-20
 1.92369821e-20
 1.92369821e-20
 1.92369821e-20
 1.92369821e-20
 1.92369821e-20
 1.92369821e-20
 4.51912943e-18
 4.51912943e-18
 4.51912943e-18
 1.37595168e-20
 1.37595168e-20
 1.37595168e-20
 1.37595168e-20
 1.37595168e-20
 1.37595168e-20
 1.71000596e-17
 1.12121879e-19
 1.12121879e-19
 1.12121879e-19
 3.08396453e-15
 3.08396453e-15
 3.08396453e-15
 3.86130984e-15
 3.86130984e-15
)
)
1
(
101
(
 3.23343399e-22
 3.23343399e-22
 3.23343399e-22
 3.23343399e-22
 3.23343399e-22
 3.23343399e-22
 3.23343399e-22
 3.23343399e-22
 3.23343399e-22
 3.23343399e-22
 3.23343399e-22
 3.23343399e-22
 3.23343399e-22
 3.23343399e-22
 3.23343399e-22
 3.23343399e-22
 3.23343399e-22
 3.23343399e-22
 3.23343399e-22
 8.35448836e-20
 8.35448836e-20
 8.35448836e-20
 8.35448836e-20
 8.35448836e-20
 8.35448836e-20
 8.35448836e-20
 8.35448836e-20
 8.35448836e-20
 8.35448836e-20
 8.35448836e-20
 8.35448836e-20
 8.35448836e-20
 8.35448836e-20
 8.35448836e-20
 8.35448836e-20
 8.35448836e-20
 8.35448836e-20
 8.35448836e-20
 8.35448836e-20
 8.35448836e-20
 8.35448836e-20
 8.35448836e-20
 2.08755229e-19
 2.08755229e-19
 2.08755229e-19
 2.08755229e-19
 2.08755229e-19
 2.08755229e-19
 2.08755229e-19
 2.08755229e-19
 2.08755229e-19
 1.11350781e-19
 1.11350781e-19
 1.11350781e-19
 1.11350781e-19
 1.11350781e-19
 1.11350781e-19
 1.11350781e-19
 1.11350781e-19
 5.17394944e-20
 5.17394944e-20
 5.17394944e-20
 5.17394944e-20
 5.17394944e-20
 5.17394944e-20
 5.17394944e-20
 5.17394944e-20
 5.17394944e-20
 5.17394944e-20
 5.17394944e-20
 5.17394944e-20
 5.17394944e-20
 5.17394944e-20
 1.92369821e-20
 1.92369821e-20
 1.92369821e-20
 1.92369821e-20
 1.92369821e-20
 1.92369821e-20
 1.92369821e-20
 1.92369821e-20
 1.92369821e-20
 1.92369821e-20
 1.92369821e-20
 4.51912943e-18
 4.51912943e-18
 4.51912943e-18
 1.37595168e-20
 1.37595168e-20
 1.37595168e-20
 1.37595168e-20
 1.37595168e-20
 1.37595168e-20
 1.71000596e-17
 1.71000596e-17
 2.09154069e-15
 2.09154069e-15
 3.08396453e-15
 3.08396453e-15
 3.08396453e-15
 3.08396453e-15
)
)
1
(
101
(
 2.32902845e-21
 2.32902845e-21
 2.32902845e-21
 2.32902845e-21
 2.32902845e-21
 2.32902845e-21
 2.32902845e-21
 2.32902845e-21
 2.32902845e-21
 2.32902845e-21
 2.32902845e-21
 2.32902845e-21
 2.32902845e-21
 2.32902845e-21
 8.35448836e-20
 8.35448836e-20
 8.35448836e-20
 8.35448836e-20
 8.35448836e-20
 8.35448836e-20
 8.35448836e-20
 8.35448836e-20
 8.35448836e-20
 8.35448836e-20
 8.35448836e-20
 8.35448836e-20
 8.35448836e-20
 8.35448836e-20
 8.35448836e-20
 8.35448836e-20
 8.35448836e-20
 8.35448836e-20
 8.35448836e-20
 8.35448836e-20
 8.35448836e-20
 8.35448836e-20
 8.35448836e-20
 8.35448836e-20
 8.35448836e-20
 8.35448836e-20
 8.35448836e-20
 8.35448836e-20
 2.08755229e-19
 2.08755229e-19
 2.08755229e-19
 2.08755229e-19
 2.08755229e-19
 2.08755229e-19
 2.08755229e-19
 2.08755229e-19
 2.08755229e-19
 2.08755229e-19
 1.11350781e-19
 1.11350781e-19
 1.11350781e-19
 1.11350781e-19
 1.11350781e-19
 1.11350781e-19
 1.11350781e-19
 1.11350781e-19
 5.17394944e-20
 5.17394944e-20
 5.17394944e-20
 5.17394944e-20
 5.17394944e-20
 5.17394944e-20
 5.17394944e-20
 5.17394944e-20
 5.17394944e-20
 5.17394944e-20
 5.17394944e-20
 5.17394944e-20
 5.17394944e-20
 5.17394944e-20
 5.17394944e-20
 1.92369821e-20
 1.92369821e-20
 1.92369821e-20
 1.92369821e-20
 1.92369821e-20
 1.92369821e-20
 1.92369821e-20
 1.92369821e-20
 1.92369821e-20
 1.92369821e-20
 4.51912943e-18
 4.51912943e-18
 4.51912943e-18
 4.51912943e-18
 1.37595168e-20
 1.37595168e-20
 1.37595168e-20
 1.37595168e-20
 1.37595168e-20
 1.71000596e-17
 1.71000596e-17
 2.09154069e-15
 2.09154069e-15
 3.08396453e-15
 3.08396453e-15
 3.08396453e-15
)
)
1
(
101
(
 5.23091503e-21
 5.23091503e-21
 5.23091503e-21
 5.23091503e-21
 5.23091503e-21
 5.23091503e-21
 5.23091503e-21
 5.23091503e-21
 5.23091503e-21
 8.35448836e-20
 8.35448836e-20
 8.35448836e-20
 8.35448836e-20
 8.35448836e-20
 8.35448836e-20
 8.35448836e-20
 8.35448836e-20
 8.35448836e-20
 8.35448836e-20
 8.35448836e-20
 8.35448836e-20
 8.35448836e-20
 8.35448836e-20
 8.35448836e-20
 8.35448836e-20
 8.35448836e-20
 8.35448836e-20
 8.35448836e-20
 8.35448836e-20
 8.35448836e-20
 8.35448836e-20
 8.35448836e-20
 8.35448836e-20
 8.35448836e-20
 8.35448836e-20
 8.35448836e-20
 8.35448836e-20
 8.35448836e-20
 8.35448836e-20
 8.35448836e-20
 8.35448836e-20
 8.35448836e-20
 2.08755229e-19
 2.08755229e-19
 2.08755229e-19
 2.08755229e-19
 2.08755229e-19
 2.08755229e-19
 2.08755229e-19
 2.08755229e-19
 2.08755229e-19
 2.08755229e-19
 2.08755229e-19
 2.08755229e-19
 1.11350781e-19
 1.11350781e-19
 1.11350781e-19
 1.11350781e-19
 1.11350781e-19
 1.11350781e-19
 1.11350781e-19
 1.11350781e-19
 5.17394944e-20
 5.17394944e-20
 5.17394944e-20
 5.17394944e-20
 5.17394944e-20
 5.17394944e-20
 5.17394944e-20
 5.17394944e-20
 5.17394944e-20
 5.17394944e-20
 5.17394944e-20
 5.17394944e-20
 5.17394944e-20
 5.17394944e-20
 1.92369821e-20
 1.92369821e-20
 1.92369821e-20
 1.92369821e-20
 1.92369821e-20
 1.92369821e-20
 1.92369821e-20
 1.92369821e-20
 1.92369821e-20
 1.92369821e-20
 4.51912943e-18
 4.51912943e-18
 4.51912943e-18
 4.51912943e-18
 4.49948512e-21
 1.37595168e-20
 1.37595168e-20
 1.37595168e-20
 1.37595168e-20
 1.71000596e-17
 1.71000596e-17
 2.09154069e-15
 2.09154069e-15
 3.08396453e-15
 3.08396453e-15
)
)
1
(
101
(
 1.41325684e-20
 1.41325684e-20
 1.41325684e-20
 1.41325684e-20
 1.41325684e-20
 1.41325684e-20
 8.35448836e-20
 8.35448836e-20
 8.35448836e-20
 8.35448836e-20
 8.35448836e-20
 8.35448836e-20
 8.35448836e-20
 8.35448836e-20
 8.35448836e-20
 8.35448836e-20
 8.35448836e-20
 8.35448836e-20
 8.35448836e-20
 8.35448836e-20
 8.35448836e-20
 8.35448836e-20
 8.35448836e-20
 8.35448836e-20
 8.35448836e-20
 8.35448836e-20
 8.35448836e-20
 8.35448836e-20
 8.35448836e-20
 8.35448836e-20
 8.35448836e-20
 8.35448836e-20
 8.35448836e-20
 8.35448836e-20
 8.35448836e-20
 8.35448836e-20
 8.35448836e-20
 8.35448836e-20
 8.35448836e-20
 8.35448836e-20
 8.35448836e-20
 8.35448836e-20
 2.08755229e-19
 2.08755229e-19
 2.08755229e-19
 2.08755229e-19
 2.08755229e-19
 2.08755229e-19
 2.08755229e-19
 2.08755229e-19
 2.08755229e-19
 2.08755229e-19
 2.08755229e-19
 2.08755229e-19
 2.08755229e-19
 1.11350781e-19
 1.11350781e-19
 1.11350781e-19
 1.11350781e-19
 1.11350781e-19
 1.11350781e-19
 1.11350781e-19
 1.11350781e-19
 5.17394944e-20
 5.17394944e-20
 5.17394944e-20
 5.17394944e-20
 5.17394944e-20
 5.17394944e-20
 5.17394944e-20
 5.17394944e-20
 5.17394944e-20
 5.17394944e-20
 5.17394944e-20
 5.17394944e-20
 5.17394944e-20
 5.17394944e-20
 1.92369821e-20
 1.92369821e-20
 1.92369821e-20
 1.92369821e-20
 1.92369821e-20
 1.92369821e-20
 1.92369821e-20
 1.92369821e-20
 1.92369821e-20
 1.92369821e-20
 4.51912943e-18
 4.51912943e-18
 4.51912943e-18
 4.51912943e-18
 4.49948512e-21
 4.49948512e-21
 2.13155025e-17
 2.13155025e-17
 2.13155025e-17
 1.71000596e-17
 1.71000596e-17
 2.09154069e-15
 2.09154069e-15
 3.08396453e-15
)
)
1
(
101
(
 3.98049150e-20
 3.98049150e-20
 3.98049150e-20
 8.35448836e-20
 8.35448836e-20
 8.35448836e-20
 8.35448836e-20
 8.35448836e-20
 8.35448836e-20
 8.35448836e-20
 8.35448836e-20
 8.35448836e-20
 8.35448836e-20
 8.35448836e-20
 8.35448836e-20
 8.35448836e-20
 8.35448836e-20
 8.35448836e-20
 8.35448836e-20
 8.35448836e-20
 8.35448836e-20
 8.35448836e-20
 8.35448836e-20
 8.35448836e-20
 8.35448836e-20
 8.35448836e-20
 8.35448836e-20
 8.35448836e-20
 8.35448836e-20
 8.35448836e-20
 8.35448836e-20
 8.35448836e-20
 8.35448836e-20
 8.35448836e-20
 8.35448836e-20
 8.35448836e-20
 8.35448836e-20
 8.35448836e-20
 8.35448836e-20
 8.35448836e-20
 8.35448836e-20
 2.16722067e-19
 2.08755229e-19
 2.08755229e-19
 2.08755229e-19
 2.08755229e-19
 2.08755229e-19
 2.08755229e-19
 2.08755229e-19
 2.08755229e-19
 2.08755229e-19
 2.08755229e-19
 2.08755229e-19
 2.08755229e-19
 2.08755229e-19
 2.08755229e-19
 1.11350781e-19
 1.11350781e-19
 1.11350781e-19
 1.11350781e-19
 1.11350781e-19
 1.11350781e-19
 1.11350781e-19
 1.11350781e-19
 1.11350781e-19
 5.17394944e-20
 5.17394944e-20
 5.17394944e-20
 5.17394944e-20
 5.17394944e-20
 5.17394944e-20
 5.17394944e-20
 5.17394944e-20
 5.17394944e-20
 5.17394944e-20
 5.17394944e-20
 5.17394944e-20
 5.17394944e-20
 1.92369821e-20
 1.92369821e-20
 1.92369821e-20
 1.92369821e-20
 1.92369821e-20
 1.92369821e-20
 1.92369821e-20
 1.92369821e-20
 1.92369821e-20
 1.92369821e-20
 4.51912943e-18
 4.51912943e-18
 4.51912943e-18
 4.51912943e-18
 4.49948512e-21
 4.49948512e-21
 2.13155025e-17
 2.13155025e-17
 2.13155025e-17
 2.13155025e-17
 1.71000596e-17
 2.09154069e-15
 2.09154069e-15
)
)
1
(
101
(
 1.24354633e-20
 1.24354633e-20
 8.35448836e-20
 8.35448836e-20
 8.35448836e-20
 8.35448836e-20
 8.35448836e-20
 8.35448836e-20
 8.35448836e-20
 8.35448836e-20
 8.35448836e-20
 8.35448836e-20
 8.35448836e-20
 8.35448836e-20
 8.35448836e-20
 8.35448836e-20
 8.35448836e-20
 8.35448836e-20
 8.35448836e-20
 8.35448836e-20
 8.35448836e-20
 8.35448836e-20
 8.35448836e-20
 8.35448836e-20
 8.35448836e-20
 8.35448836e-20
 8.35448836e-20
 8.35448836e-20
 8.35448836e-20
 8.35448836e-20
 8.35448836e-20
 8.35448836e-20
 8.35448836e-20
 8.35448836e-20
 8.35448836e-20
 8.35448836e-20
 8.35448836e-20
 8.35448836e-20
 8.35448836e-20
 8.35448836e-20
 8.35448836e-20
 2.16722067e-19
 2.16722067e-19
 2.08755229e-19
 2.08755229e-19
 2.08755229e-19
 2.08755229e-19
 2.08755229e-19
 2.08755229e-19
 2.08755229e-19
 2.08755229e-19
 2.08755229e-19
 2.08755229e-19
 2.08755229e-19
 2.08755229e-19
 2.08755229e-19
 2.08755229e-19
 1.11350781e-19
 1.11350781e-19
 1.11350781e-19
 1.11350781e-19
 1.11350781e-19
 1.11350781e-19
 1.11350781e-19
 1.11350781e-19
 1.11350781e-19
 5.17394944e-20
 5.17394944e-20
 5.17394944e-20
 5.17394944e-20
 5.17394944e-20
 5.17394944e-20
 5.17394944e-20
 5.17394944e-20
 5.17394944e-20
 5.17394944e-20
 5.17394944e-20
 5.17394944e-20
 5.17394944e-20
 5.17394944e-20
 1.92369821e-20
 1.92369821e-20
 1.92369821e-20
 1.92369821e-20
 1.92369821e-20
 1.92369821e-20
 1.92369821e-20
 1.92369821e-20
 1.94312922e-16
 4.51912943e-18
 4.51912943e-18
 4.51912943e-18
 2.19595145e-15
 2.19595145e-15
 2.19595145e-15
 2.13155025e-17
 2.13155025e-17
 2.13155025e-17
 2.13155025e-17
 2.13155025e-17
 2.09154069e-15
)
)
1
(
101
(
 4.78465676e-30
 8.35448836e-20
 8.35448836e-20
 8.35448836e-20
 8.35448836e-20
 8.35448836e-20
 8.35448836e-20
 8.35448836e-20
 8.35448836e-20
 8.35448836e-20
 8.35448836e-20
 8.35448836e-20
 8.35448836e-20
 8.35448836e-20
 8.35448836e-20
 8.35448836e-20
 8.35448836e-20
 8.35448836e-20
 8.35448836e-20
 8.35448836e-20
 8.35448836e-20
 8.35448836e-20
 8.35448836e-20
 8.35448836e-20
 8.35448836e-20
 8.35448836e-20
 8.35448836e-20
 8.35448836e-20
 8.35448836e-20
 8.35448836e-20
 8.35448836e-20
 8.35448836e-20
 8.35448836e-20
 8.35448836e-20
 8.35448836e-20
 8.35448836e-20
 8.35448836e-20
 8.35448836e-20
 8.35448836e-20
 8.35448836e-20
 2.16722067e-19
 2.16722067e-19
 2.16722067e-19
 2.16722067e-19
 2.08755229e-19
 2.08755229e-19
 2.08755229e-19
 2.08755229e-19
 2.08755229e-19
 2.08755229e-19
 2.08755229e-19
 2.08755229e-19
 2.08755229e-19
 2.08755229e-19
 2.08755229e-19
 2.08755229e-19
 2.08755229e-19
 2.08755229e-19
 1.11350781e-19
 1.11350781e-19
 1.11350781e-19
 1.11350781e-19
 1.11350781e-19
 1.11350781e-19
 1.11350781e-19
 1.11350781e-19
 1.11350781e-19
 1.11350781e-19
 5.17394944e-20
 5.17394944e-20
 5.17394944e-20
 5.17394944e-20
 5.17394944e-20
 5.17394944e-20
 5.17394944e-20
 5.17394944e-20
 5.17394944e-20
 5.17394944e-20
 5.17394944e-20
 5.17394944e-20
 5.17394944e-20
 3.34918926e-20
 1.92369821e-20
 1.92369821e-20
 1.92369821e-20
 1.92369821e-20
 1.92369821e-20
 1.92369821e-20
 1.92369821e-20
 1.94312922e-16
 1.94312922e-16
 9.35024587e-17
 9.35024587e-17
 2.19595145e-15
 2.19595145e-15
 2.19595145e-15
 2.19595145e-15
 2.13155025e-17
 2.13155025e-17
 2.13155025e-17
 2.13155025e-17
)
)
1
(
101
(
 4.78465676e-30
 2.48633786e-19
 2.48633786e-19
 2.48633786e-19
 2.48633786e-19
 2.48633786e-19
 2.48633786e-19
 2.48633786e-19
 2.48633786e-19
 2.48633786e-19
 2.48633786e-19
 2.48633786e-19
 2.48633786e-19
 2.48633786e-19
 2.48633786e-19
 2.48633786e-19
 2.48633786e-19
 2.48633786e-19
 2.48633786e-19
 2.48633786e-19
 2.48633786e-19
 2.48633786e-19
 2.48633786e-19
 2.48633786e-19
 2.48633786e-19
 2.48633786e-19
 2.48633786e-19
 2.48633786e-19
 2.48633786e-19
 2.48633786e-19
 2.48633786e-19
 2.48633786e-19
 2.48633786e-19
 2.48633786e-19
 2.48633786e-19
 2.48633786e-19
 2.48633786e-19
 2.48633786e-19
 2.48633786e-19
 2.48633786e-19
 2.16722067e-19
 2.16722067e-19
 2.16722067e-19
 2.16722067e-19
 2.16722067e-19
 2.08755229e-19
 2.08755229e-19
 2.08755229e-19
 2.08755229e-19
 2.08755229e-19
 2.08755229e-19
 2.08755229e-19
 2.08755229e-19
 2.08755229e-19
 2.08755229e-19
 2.08755229e-19
 2.08755229e-19
 2.08755229e-19
 2.08755229e-19
 1.11350781e-19
 1.11350781e-19
 1.11350781e-19
 1.11350781e-19
 1.11350781e-19
 1.11350781e-19
 1.11350781e-19
 1.11350781e-19
 1.11350781e-19
 1.11350781e-19
 5.17394944e-20
 5.17394944e-20
 5.17394944e-20
 5.17394944e-20
 5.17394944e-20
 5.17394944e-20
 5.17394944e-20
 5.17394944e-20
 5.17394944e-20
 5.17394944e-20
 5.17394944e-20
 5.17394944e-20
 5.17394944e-20
 3.34918926e-20
 3.34918926e-20
 1.92369821e-20
 1.92369821e-20
 1.92369821e-20
 1.92369821e-20
 1.92369821e-20
 1.94312922e-16
 1.94312922e-16
 1.94312922e-16
 9.35024587e-17
 9.35024587e-17
 2.19595145e-15
 2.19595145e-15
 2.19595145e-15
 2.19595145e-15
 2.19595145e-15
 2.13155025e-17
 2.13155025e-17
)
)
1
(
101
(
 6.36540210e-19
 6.36540210e-19
 6.36540210e-19
 6.36540210e-19
 6.36540210e-19
 6.36540210e-19
 6.36540210e-19
 6.36540210e-19
 6.36540210e-19
 6.36540210e-19
 6.36540210e-19
 6.36540210e-19
 6.36540210e-19
 6.36540210e-19
 6.36540210e-19
 6.36540210e-19
 6.36540210e-19
 6.36540210e-19
 6.36540210e-19
 6.36540210e-19
 6.36540210e-19
 6.36540210e-19
 6.36540210e-19
 6.36540210e-19
 6.36540210e-19
 6.36540210e-19
 6.36540210e-19
 6.36540210e-19
 6.36540210e-19
 6.36540210e-19
 6.36540210e-19
 6.36540210e-19
 6.36540210e-19
 6.36540210e-19
 6.36540210e-19
 6.36540210e-19
 6.36540210e-19
 6.36540210e-19
 6.36540210e-19
 6.36540210e-19
 2.16722067e-19
 2.16722067e-19
 2.16722067e-19
 2.16722067e-19
 2.16722067e-19
 2.16722067e-19
 2.08755229e-19
 2.08755229e-19
 2.08755229e-19
 2.08755229e-19
 2.08755229e-19
 2.08755229e-19
 2.08755229e-19
 2.08755229e-19
 2.08755229e-19
 2.08755229e-19
 2.08755229e-19
 2.08755229e-19
 2.08755229e-19
 2.08755229e-19
 2.08755229e-19
 1.11350781e-19
 1.11350781e-19
 1.11350781e-19
 1.11350781e-19
 1.11350781e-19
 1.11350781e-19
 1.11350781e-19
 1.11350781e-19
 1.11350781e-19
 1.11350781e-19
 5.17394944e-20
 5.17394944e-20
 5.17394944e-20
 5.17394944e-20
 5.17394944e-20
 5.17394944e-20
 5.17394944e-20
 5.17394944e-20
 5.17394944e-20
 5.17394944e-20
 5.17394944e-20
 5.17394944e-20
 3.34918926e-20
 3.34918926e-20
 3.34918926e-20
 1.92369821e-20
 1.92369821e-20
 1.92369821e-20
 1.92369821e-20
 1.94312922e-16
 1.94312922e-16
 1.94312922e-16
 9.35024587e-17
 9.35024587e-17
 2.19595145e-15
 2.19595145e-15
 2.19595145e-15
 2.19595145e-15
 2.19595145e-15
 2.19595145e-15
)
)
1
(
101
(
 1.44748293e-18
 1.44748293e-18
 1.44748293e-18
 1.44748293e-18
 1.44748293e-18
 1.44748293e-18
 1.44748293e-18
 1.44748293e-18
 1.44748293e-18
 1.44748293e-18
 1.44748293e-18
 1.44748293e-18
 1.44748293e-18
 1.44748293e-18
 1.44748293e-18
 1.44748293e-18
 1.44748293e-18
 1.44748293e-18
 1.44748293e-18
 1.44748293e-18
 1.44748293e-18
 1.44748293e-18
 1.44748293e-18
 1.44748293e-18
 1.44748293e-18
 1.44748293e-18
 1.44748293e-18
 1.44748293e-18
 1.44748293e-18
 1.44748293e-18
 1.44748293e-18
 1.44748293e-18
 1.44748293e-18
 1.44748293e-18
 1.44748293e-18
 1.44748293e-18
 1.44748293e-18
 1.44748293e-18
 1.44748293e-18
 2.16722067e-19
 2.16722067e-19
 2.16722067e-19
 2.16722067e-19
 2.16722067e-19
 2.16722067e-19
 2.16722067e-19
 2.16722067e-19
 2.16722067e-19
 2.08755229e-19
 2.08755229e-19
 2.08755229e-19
 2.08755229e-19
 2.08755229e-19
 2.08755229e-19
 2.08755229e-19
 2.08755229e-19
 2.08755229e-19
 2.08755229e-19
 2.08755229e-19
 2.08755229e-19
 2.08755229e-19
 2.08755229e-19
 1.11350781e-19
 1.11350781e-19
 1.11350781e-19
 1.11350781e-19
 1.11350781e-19
 1.11350781e-19
 1.11350781e-19
 1.11350781e-19
 1.11350781e-19
 1.11350781e-19
 5.17394944e-20
 5.17394944e-20
 5.17394944e-20
 5.17394944e-20
 5.17394944e-20
 5.17394944e-20
 5.17394944e-20
 5.17394944e-20
 5.17394944e-20
 5.17394944e-20
 5.17394944e-20
 5.17394944e-20
 3.34918926e-20
 3.34918926e-20
 3.34918926e-20
 3.34918926e-20
 2.40420424e-16
 2.40420424e-16
 2.40420424e-16
 1.94312922e-16
 1.94312922e-16
 1.94312922e-16
 9.35024587e-17
 9.35024587e-17
 2.19595145e-15
 2.19595145e-15
 2.19595145e-15