/*--------------------------------*- C++ -*----------------------------------*\
| =========                 |                                                 |
| \\      /  F ield        | OpenFOAM: The Open Source CFD Toolbox           |
|  \\    /   O peration    | Version:  7                                     |
|   \\  /    A nd          | Web:      http://www.OpenFOAM.com               |
|    \\/     M anipulation |                                                 |
\*---------------------------------------------------------------------------*/

FoamFile
{
    version     2.0;
    format      ascii;
    class       dictionary;
    object      Y_HCO_table;
}

Y_HCO_table
2
(
101
(
1
(
101
(
 8.75369567e-20
 8.75369567e-20
 8.75369567e-20
 8.75369567e-20
 8.75369567e-20
 8.75369567e-20
 8.75369567e-20
 8.75369567e-20
 8.75369567e-20
 8.75369567e-20
 8.75369567e-20
 8.75369567e-20
 8.75369567e-20
 8.75369567e-20
 8.75369567e-20
 8.75369567e-20
 8.75369567e-20
 8.75369567e-20
 8.75369567e-20
 8.75369567e-20
 8.75369567e-20
 8.75369567e-20
 8.75369567e-20
 8.75369567e-20
 8.75369567e-20
 8.75369567e-20
 8.75369567e-20
 8.75369567e-20
 8.75369567e-20
 8.75369567e-20
 8.75369567e-20
 8.75369567e-20
 8.75369567e-20
 8.75369567e-20
 8.75369567e-20
 8.75369567e-20
 8.75369567e-20
 8.75369567e-20
 8.75369567e-20
 8.75369567e-20
 8.75369567e-20
 8.75369567e-20
 8.75369567e-20
 8.75369567e-20
 8.75369567e-20
 1.31387856e-10
 1.31387856e-10
 1.79784395e-10
 1.79784395e-10
 1.79784395e-10
 1.79784395e-10
 1.79784395e-10
 1.79784395e-10
 1.79784395e-10
 1.79784395e-10
 1.79784395e-10
 1.79784395e-10
 1.79784395e-10
 1.79784395e-10
 1.79784395e-10
 1.79784395e-10
 1.79784395e-10
 1.79784395e-10
 1.20992966e-10
 1.20992966e-10
 1.20992966e-10
 1.20992966e-10
 1.20992966e-10
 1.20992966e-10
 1.20992966e-10
 1.20992966e-10
 1.20992966e-10
 1.20992966e-10
 1.20992966e-10
 1.20992966e-10
 2.58749079e-11
 2.58749079e-11
 2.58749079e-11
 2.58749079e-11
 2.58749079e-11
 2.58749079e-11
 2.58749079e-11
 2.07247289e-11
 2.07247289e-11
 2.07247289e-11
 2.07247289e-11
 2.07247289e-11
 2.07247289e-11
 1.10583538e-11
 1.10583538e-11
 1.10583538e-11
 1.10583538e-11
 1.10583538e-11
 1.10583538e-11
 1.10583538e-11
 1.51831372e-12
 1.51831372e-12
 1.51831372e-12
 1.51831372e-12
 1.51831372e-12
 2.16608627e-14
)
)
1
(
101
(
 2.28314527e-17
 2.28314527e-17
 2.28314527e-17
 2.28314527e-17
 2.28314527e-17
 2.28314527e-17
 2.28314527e-17
 2.28314527e-17
 2.28314527e-17
 2.28314527e-17
 2.28314527e-17
 2.28314527e-17
 2.28314527e-17
 2.28314527e-17
 2.28314527e-17
 2.28314527e-17
 2.28314527e-17
 2.28314527e-17
 2.28314527e-17
 2.28314527e-17
 2.28314527e-17
 2.28314527e-17
 2.28314527e-17
 2.28314527e-17
 2.28314527e-17
 2.28314527e-17
 2.28314527e-17
 2.28314527e-17
 2.28314527e-17
 2.28314527e-17
 2.28314527e-17
 2.28314527e-17
 2.28314527e-17
 2.28314527e-17
 2.28314527e-17
 2.28314527e-17
 2.28314527e-17
 2.28314527e-17
 2.28314527e-17
 2.28314527e-17
 2.28314527e-17
 2.28314527e-17
 2.28314527e-17
 2.28314527e-17
 2.28314527e-17
 1.31387856e-10
 1.31387856e-10
 1.31387856e-10
 1.79784395e-10
 1.79784395e-10
 1.79784395e-10
 1.79784395e-10
 1.79784395e-10
 1.79784395e-10
 1.79784395e-10
 1.79784395e-10
 1.79784395e-10
 1.79784395e-10
 1.79784395e-10
 1.79784395e-10
 1.79784395e-10
 1.79784395e-10
 1.79784395e-10
 1.79784395e-10
 1.79784395e-10
 1.20992966e-10
 1.20992966e-10
 1.20992966e-10
 1.20992966e-10
 1.20992966e-10
 1.20992966e-10
 1.20992966e-10
 1.20992966e-10
 1.20992966e-10
 1.20992966e-10
 1.20992966e-10
 1.20992966e-10
 2.58749079e-11
 2.58749079e-11
 2.58749079e-11
 2.58749079e-11
 2.58749079e-11
 2.58749079e-11
 2.07247289e-11
 2.07247289e-11
 2.07247289e-11
 2.07247289e-11
 2.07247289e-11
 2.07247289e-11
 2.07247289e-11
 1.10583538e-11
 1.10583538e-11
 1.10583538e-11
 1.10583538e-11
 1.10583538e-11
 1.10583538e-11
 5.04686188e-12
 1.51831372e-12
 1.51831372e-12
 1.51831372e-12
 5.31909985e-13
)
)
1
(
101
(
 1.46021422e-16
 1.46021422e-16
 1.46021422e-16
 1.46021422e-16
 1.46021422e-16
 1.46021422e-16
 1.46021422e-16
 1.46021422e-16
 1.46021422e-16
 1.46021422e-16
 1.46021422e-16
 1.46021422e-16
 1.46021422e-16
 1.46021422e-16
 1.46021422e-16
 1.46021422e-16
 1.46021422e-16
 1.46021422e-16
 1.46021422e-16
 1.46021422e-16
 1.46021422e-16
 1.46021422e-16
 1.46021422e-16
 1.46021422e-16
 1.46021422e-16
 1.46021422e-16
 1.46021422e-16
 1.46021422e-16
 1.46021422e-16
 1.46021422e-16
 1.46021422e-16
 1.46021422e-16
 1.46021422e-16
 1.46021422e-16
 1.46021422e-16
 1.46021422e-16
 1.46021422e-16
 1.46021422e-16
 1.46021422e-16
 1.46021422e-16
 1.46021422e-16
 1.46021422e-16
 1.46021422e-16
 1.46021422e-16
 1.31387856e-10
 1.31387856e-10
 1.31387856e-10
 1.31387856e-10
 1.31387856e-10
 1.31387856e-10
 1.79784395e-10
 1.79784395e-10
 1.79784395e-10
 1.79784395e-10
 1.79784395e-10
 1.79784395e-10
 1.79784395e-10
 1.79784395e-10
 1.79784395e-10
 1.79784395e-10
 1.79784395e-10
 1.79784395e-10
 1.79784395e-10
 1.79784395e-10
 1.79784395e-10
 1.79784395e-10
 1.20992966e-10
 1.20992966e-10
 1.20992966e-10
 1.20992966e-10
 1.20992966e-10
 1.20992966e-10
 1.20992966e-10
 1.20992966e-10
 1.20992966e-10
 1.20992966e-10
 1.20992966e-10
 1.20992966e-10
 2.58749079e-11
 2.58749079e-11
 2.58749079e-11
 2.58749079e-11
 2.58749079e-11
 2.58749079e-11
 2.58749079e-11
 2.07247289e-11
 2.07247289e-11
 2.07247289e-11
 2.07247289e-11
 2.07247289e-11
 2.07247289e-11
 1.10583538e-11
 1.10583538e-11
 1.10583538e-11
 1.10583538e-11
 1.10583538e-11
 1.10583538e-11
 5.04686188e-12
 5.04686188e-12
 2.13892060e-12
 2.13892060e-12
)
)
1
(
101
(
 3.14461582e-16
 3.14461582e-16
 3.14461582e-16
 3.14461582e-16
 3.14461582e-16
 3.14461582e-16
 3.14461582e-16
 3.14461582e-16
 3.14461582e-16
 3.14461582e-16
 3.14461582e-16
 3.14461582e-16
 3.14461582e-16
 3.14461582e-16
 3.14461582e-16
 3.14461582e-16
 3.14461582e-16
 3.14461582e-16
 3.14461582e-16
 3.14461582e-16
 3.14461582e-16
 3.14461582e-16
 3.14461582e-16
 3.14461582e-16
 3.14461582e-16
 3.14461582e-16
 3.14461582e-16
 3.14461582e-16
 3.14461582e-16
 3.14461582e-16
 3.14461582e-16
 3.14461582e-16
 3.14461582e-16
 3.14461582e-16
 3.14461582e-16
 3.14461582e-16
 3.14461582e-16
 3.14461582e-16
 3.14461582e-16
 3.14461582e-16
 3.14461582e-16
 3.14461582e-16
 3.14461582e-16
 3.14461582e-16
 1.61529984e-10
 1.31387856e-10
 1.31387856e-10
 1.31387856e-10
 1.31387856e-10
 1.31387856e-10
 1.31387856e-10
 1.79784395e-10
 1.79784395e-10
 1.79784395e-10
 1.79784395e-10
 1.79784395e-10
 1.79784395e-10
 1.79784395e-10
 1.79784395e-10
 1.79784395e-10
 1.79784395e-10
 1.79784395e-10
 1.79784395e-10
 1.79784395e-10
 1.79784395e-10
 1.79784395e-10
 1.79784395e-10
 1.20992966e-10
 1.20992966e-10
 1.20992966e-10
 1.20992966e-10
 1.20992966e-10
 1.20992966e-10
 1.20992966e-10
 1.20992966e-10
 1.20992966e-10
 1.20992966e-10
 1.20992966e-10
 1.20992966e-10
 3.92304269e-11
 2.58749079e-11
 2.58749079e-11
 2.58749079e-11
 2.58749079e-11
 2.58749079e-11
 2.58749079e-11
 2.07247289e-11
 2.07247289e-11
 2.07247289e-11
 2.07247289e-11
 2.07247289e-11
 2.07247289e-11
 2.07247289e-11
 1.10583538e-11
 1.10583538e-11
 1.10583538e-11
 1.10583538e-11
 1.10583538e-11
 5.04686188e-12
 8.45564997e-13
 8.45564997e-13
)
)
1
(
101
(
 8.20557926e-16
 8.20557926e-16
 8.20557926e-16
 8.20557926e-16
 8.20557926e-16
 8.20557926e-16
 8.20557926e-16
 8.20557926e-16
 8.20557926e-16
 8.20557926e-16
 8.20557926e-16
 8.20557926e-16
 8.20557926e-16
 8.20557926e-16
 8.20557926e-16
 8.20557926e-16
 8.20557926e-16
 8.20557926e-16
 8.20557926e-16
 8.20557926e-16
 8.20557926e-16
 8.20557926e-16
 8.20557926e-16
 8.20557926e-16
 8.20557926e-16
 8.20557926e-16
 8.20557926e-16
 8.20557926e-16
 8.20557926e-16
 8.20557926e-16
 8.20557926e-16
 8.20557926e-16
 8.20557926e-16
 8.20557926e-16
 8.20557926e-16
 8.20557926e-16
 8.20557926e-16
 8.20557926e-16
 8.20557926e-16
 8.20557926e-16
 8.20557926e-16
 8.20557926e-16
 8.20557926e-16
 8.20557926e-16
 1.61529984e-10
 1.61529984e-10
 1.61529984e-10
 1.31387856e-10
 1.31387856e-10
 1.31387856e-10
 1.31387856e-10
 1.31387856e-10
 1.31387856e-10
 1.79784395e-10
 1.79784395e-10
 1.79784395e-10
 1.79784395e-10
 1.79784395e-10
 1.79784395e-10
 1.79784395e-10
 1.79784395e-10
 1.79784395e-10
 1.79784395e-10
 1.79784395e-10
 1.79784395e-10
 1.79784395e-10
 1.79784395e-10
 1.79784395e-10
 1.20992966e-10
 1.20992966e-10
 1.20992966e-10
 1.20992966e-10
 1.20992966e-10
 1.20992966e-10
 1.20992966e-10
 1.20992966e-10
 1.20992966e-10
 1.20992966e-10
 1.20992966e-10
 1.20992966e-10
 3.92304269e-11
 2.58749079e-11
 2.58749079e-11
 2.58749079e-11
 2.58749079e-11
 2.58749079e-11
 2.58749079e-11
 2.58749079e-11
 2.07247289e-11
 2.07247289e-11
 2.07247289e-11
 2.07247289e-11
 2.07247289e-11
 2.07247289e-11
 9.91111992e-12
 1.10583538e-11
 1.10583538e-11
 1.10583538e-11
 3.61390830e-12
 3.61390830e-12
 8.45564997e-13
)
)
1
(
101
(
 1.37010328e-15
 1.37010328e-15
 1.37010328e-15
 1.37010328e-15
 1.37010328e-15
 1.37010328e-15
 1.37010328e-15
 1.37010328e-15
 1.37010328e-15
 1.37010328e-15
 1.37010328e-15
 1.37010328e-15
 1.37010328e-15
 1.37010328e-15
 1.37010328e-15
 1.37010328e-15
 1.37010328e-15
 1.37010328e-15
 1.37010328e-15
 1.37010328e-15
 1.37010328e-15
 1.37010328e-15
 1.37010328e-15
 1.37010328e-15
 1.37010328e-15
 1.37010328e-15
 1.37010328e-15
 1.37010328e-15
 1.37010328e-15
 1.37010328e-15
 1.37010328e-15
 1.37010328e-15
 1.37010328e-15
 1.37010328e-15
 1.37010328e-15
 1.37010328e-15
 1.37010328e-15
 1.37010328e-15
 1.37010328e-15
 1.37010328e-15
 1.37010328e-15
 1.37010328e-15
 9.48930626e-13
 1.61529984e-10
 1.61529984e-10
 1.61529984e-10
 1.61529984e-10
 1.61529984e-10
 1.31387856e-10
 1.31387856e-10
 1.31387856e-10
 1.31387856e-10
 1.31387856e-10
 1.31387856e-10
 1.79784395e-10
 1.79784395e-10
 1.79784395e-10
 1.79784395e-10
 1.79784395e-10
 1.79784395e-10
 1.79784395e-10
 1.79784395e-10
 1.79784395e-10
 1.79784395e-10
 1.79784395e-10
 1.79784395e-10
 1.79784395e-10
 1.79784395e-10
 1.79784395e-10
 1.79784395e-10
 1.20992966e-10
 1.20992966e-10
 1.20992966e-10
 1.20992966e-10
 1.20992966e-10
 1.20992966e-10
 1.20992966e-10
 1.20992966e-10
 1.20992966e-10
 1.20992966e-10
 1.20992966e-10
 3.92304269e-11
 3.92304269e-11
 2.58749079e-11
 2.58749079e-11
 2.58749079e-11
 2.58749079e-11
 2.58749079e-11
 2.58749079e-11
 2.07247289e-11
 2.07247289e-11
 2.07247289e-11
 2.07247289e-11
 2.07247289e-11
 2.07247289e-11
 9.91111992e-12
 9.91111992e-12
 7.16260532e-12
 7.16260532e-12
 3.61390830e-12
 3.61390830e-12
)
)
1
(
101
(
 3.56993832e-15
 3.56993832e-15
 3.56993832e-15
 3.56993832e-15
 3.56993832e-15
 3.56993832e-15
 3.56993832e-15
 3.56993832e-15
 3.56993832e-15
 3.56993832e-15
 3.56993832e-15
 3.56993832e-15
 3.56993832e-15
 3.56993832e-15
 3.56993832e-15
 3.56993832e-15
 3.56993832e-15
 3.56993832e-15
 3.56993832e-15
 3.56993832e-15
 3.56993832e-15
 3.56993832e-15
 3.56993832e-15
 3.56993832e-15
 3.56993832e-15
 3.56993832e-15
 3.56993832e-15
 3.56993832e-15
 3.56993832e-15
 3.56993832e-15
 3.56993832e-15
 3.56993832e-15
 3.56993832e-15
 9.48930626e-13
 9.48930626e-13
 9.48930626e-13
 9.48930626e-13
 9.48930626e-13
 9.48930626e-13
 9.48930626e-13
 9.48930626e-13
 9.48930626e-13
 9.48930626e-13
 1.61529984e-10
 1.61529984e-10
 1.61529984e-10
 1.61529984e-10
 1.61529984e-10
 1.61529984e-10
 1.31387856e-10
 1.31387856e-10
 1.31387856e-10
 1.31387856e-10
 1.31387856e-10
 1.31387856e-10
 1.31387856e-10
 1.79784395e-10
 1.79784395e-10
 1.79784395e-10
 1.79784395e-10
 1.79784395e-10
 1.79784395e-10
 1.79784395e-10
 1.79784395e-10
 1.79784395e-10
 1.79784395e-10
 1.79784395e-10
 1.79784395e-10
 1.79784395e-10
 1.79784395e-10
 1.79784395e-10
 1.20992966e-10
 1.20992966e-10
 1.20992966e-10
 1.20992966e-10
 1.20992966e-10
 1.20992966e-10
 1.20992966e-10
 1.20992966e-10
 1.20992966e-10
 1.20992966e-10
 1.20992966e-10
 3.92304269e-11
 3.92304269e-11
 2.58749079e-11
 2.58749079e-11
 2.58749079e-11
 2.58749079e-11
 2.58749079e-11
 2.58749079e-11
 2.58749079e-11
 2.07247289e-11
 2.07247289e-11
 2.07247289e-11
 2.07247289e-11
 2.07247289e-11
 9.91111992e-12
 9.91111992e-12
 7.16260532e-12
 7.16260532e-12
 3.61390830e-12
)
)
1
(
101
(
 6.60861804e-15
 6.60861804e-15
 6.60861804e-15
 6.60861804e-15
 6.60861804e-15
 6.60861804e-15
 6.60861804e-15
 6.60861804e-15
 6.60861804e-15
 6.60861804e-15
 6.60861804e-15
 6.60861804e-15
 6.60861804e-15
 6.60861804e-15
 6.60861804e-15
 6.60861804e-15
 6.60861804e-15
 6.60861804e-15
 6.60861804e-15
 6.60861804e-15
 6.60861804e-15
 6.60861804e-15
 6.60861804e-15
 6.60861804e-15
 6.60861804e-15
 6.60861804e-15
 9.48930626e-13
 9.48930626e-13
 9.48930626e-13
 9.48930626e-13
 9.48930626e-13
 9.48930626e-13
 9.48930626e-13
 9.48930626e-13
 9.48930626e-13
 9.48930626e-13
 9.48930626e-13
 9.48930626e-13
 9.48930626e-13
 9.48930626e-13
 9.48930626e-13
 9.48930626e-13
 9.48930626e-13
 1.61529984e-10
 1.61529984e-10
 1.61529984e-10
 1.61529984e-10
 1.61529984e-10
 1.61529984e-10
 1.61529984e-10
 1.31387856e-10
 1.31387856e-10
 1.31387856e-10
 1.31387856e-10
 1.31387856e-10
 1.31387856e-10
 1.31387856e-10
 1.79784395e-10
 1.79784395e-10
 1.79784395e-10
 1.79784395e-10
 1.79784395e-10
 1.79784395e-10
 1.79784395e-10
 1.79784395e-10
 1.79784395e-10
 1.79784395e-10
 1.79784395e-10
 1.79784395e-10
 1.79784395e-10
 1.79784395e-10
 1.79784395e-10
 1.20992966e-10
 1.20992966e-10
 1.20992966e-10
 1.20992966e-10
 1.20992966e-10
 1.20992966e-10
 1.20992966e-10
 1.20992966e-10
 1.20992966e-10
 1.20992966e-10
 1.20992966e-10
 3.92304269e-11
 3.92304269e-11
 3.92304269e-11
 2.58749079e-11
 2.58749079e-11
 2.58749079e-11
 2.58749079e-11
 2.58749079e-11
 2.58749079e-11
 2.14331244e-11
 2.07247289e-11
 2.07247289e-11
 2.07247289e-11
 9.70771364e-12
 9.70771364e-12
 9.70771364e-12
 7.16260532e-12
 7.16260532e-12
)
)
1
(
101
(
 1.15993099e-14
 1.15993099e-14
 1.15993099e-14
 1.15993099e-14
 1.15993099e-14
 1.15993099e-14
 1.15993099e-14
 1.15993099e-14
 1.15993099e-14
 1.15993099e-14
 1.15993099e-14
 1.15993099e-14
 1.15993099e-14
 1.15993099e-14
 1.15993099e-14
 1.15993099e-14
 1.15993099e-14
 1.15993099e-14
 1.15993099e-14
 9.48930626e-13
 9.48930626e-13
 9.48930626e-13
 9.48930626e-13
 9.48930626e-13
 9.48930626e-13
 9.48930626e-13
 9.48930626e-13
 9.48930626e-13
 9.48930626e-13
 9.48930626e-13
 9.48930626e-13
 9.48930626e-13
 9.48930626e-13
 9.48930626e-13
 9.48930626e-13
 9.48930626e-13
 9.48930626e-13
 9.48930626e-13
 9.48930626e-13
 9.48930626e-13
 9.48930626e-13
 9.48930626e-13
 1.61529984e-10
 1.61529984e-10
 1.61529984e-10
 1.61529984e-10
 1.61529984e-10
 1.61529984e-10
 1.61529984e-10
 1.61529984e-10
 1.61529984e-10
 1.31387856e-10
 1.31387856e-10
 1.31387856e-10
 1.31387856e-10
 1.31387856e-10
 1.31387856e-10
 1.31387856e-10
 1.31387856e-10
 1.79784395e-10
 1.79784395e-10
 1.79784395e-10
 1.79784395e-10
 1.79784395e-10
 1.79784395e-10
 1.79784395e-10
 1.79784395e-10
 1.79784395e-10
 1.79784395e-10
 1.79784395e-10
 1.79784395e-10
 1.79784395e-10
 1.79784395e-10
 1.20992966e-10
 1.20992966e-10
 1.20992966e-10
 1.20992966e-10
 1.20992966e-10
 1.20992966e-10
 1.20992966e-10
 1.20992966e-10
 1.20992966e-10
 1.20992966e-10
 1.20992966e-10
 3.92304269e-11
 3.92304269e-11
 3.92304269e-11
 2.58749079e-11
 2.58749079e-11
 2.58749079e-11
 2.58749079e-11
 2.58749079e-11
 2.58749079e-11
 2.14331244e-11
 2.14331244e-11
 1.00795724e-11
 1.00795724e-11
 9.70771364e-12
 9.70771364e-12
 9.70771364e-12
 9.70771364e-12
)
)
1
(
101
(
 3.39861243e-14
 3.39861243e-14
 3.39861243e-14
 3.39861243e-14
 3.39861243e-14
 3.39861243e-14
 3.39861243e-14
 3.39861243e-14
 3.39861243e-14
 3.39861243e-14
 3.39861243e-14
 3.39861243e-14
 3.39861243e-14
 3.39861243e-14
 9.48930626e-13
 9.48930626e-13
 9.48930626e-13
 9.48930626e-13
 9.48930626e-13
 9.48930626e-13
 9.48930626e-13
 9.48930626e-13
 9.48930626e-13
 9.48930626e-13
 9.48930626e-13
 9.48930626e-13
 9.48930626e-13
 9.48930626e-13
 9.48930626e-13
 9.48930626e-13
 9.48930626e-13
 9.48930626e-13
 9.48930626e-13
 9.48930626e-13
 9.48930626e-13
 9.48930626e-13
 9.48930626e-13
 9.48930626e-13
 9.48930626e-13
 9.48930626e-13
 9.48930626e-13
 9.48930626e-13
 1.61529984e-10
 1.61529984e-10
 1.61529984e-10
 1.61529984e-10
 1.61529984e-10
 1.61529984e-10
 1.61529984e-10
 1.61529984e-10
 1.61529984e-10
 1.61529984e-10
 1.31387856e-10
 1.31387856e-10
 1.31387856e-10
 1.31387856e-10
 1.31387856e-10
 1.31387856e-10
 1.31387856e-10
 1.31387856e-10
 1.79784395e-10
 1.79784395e-10
 1.79784395e-10
 1.79784395e-10
 1.79784395e-10
 1.79784395e-10
 1.79784395e-10
 1.79784395e-10
 1.79784395e-10
 1.79784395e-10
 1.79784395e-10
 1.79784395e-10
 1.79784395e-10
 1.79784395e-10
 1.79784395e-10
 1.20992966e-10
 1.20992966e-10
 1.20992966e-10
 1.20992966e-10
 1.20992966e-10
 1.20992966e-10
 1.20992966e-10
 1.20992966e-10
 1.20992966e-10
 1.20992966e-10
 3.92304269e-11
 3.92304269e-11
 3.92304269e-11
 3.92304269e-11
 2.58749079e-11
 2.58749079e-11
 2.58749079e-11
 2.58749079e-11
 2.58749079e-11
 2.14331244e-11
 2.14331244e-11
 1.00795724e-11
 1.00795724e-11
 9.70771364e-12
 9.70771364e-12
 9.70771364e-12
)
)
1
(
101
(
 5.83313176e-14
 5.83313176e-14
 5.83313176e-14
 5.83313176e-14
 5.83313176e-14
 5.83313176e-14
 5.83313176e-14
 5.83313176e-14
 5.83313176e-14
 9.48930626e-13
 9.48930626e-13
 9.48930626e-13
 9.48930626e-13
 9.48930626e-13
 9.48930626e-13
 9.48930626e-13
 9.48930626e-13
 9.48930626e-13
 9.48930626e-13
 9.48930626e-13
 9.48930626e-13
 9.48930626e-13
 9.48930626e-13
 9.48930626e-13
 9.48930626e-13
 9.48930626e-13
 9.48930626e-13
 9.48930626e-13
 9.48930626e-13
 9.48930626e-13
 9.48930626e-13
 9.48930626e-13
 9.48930626e-13
 9.48930626e-13
 9.48930626e-13
 9.48930626e-13
 9.48930626e-13
 9.48930626e-13
 9.48930626e-13
 9.48930626e-13
 9.48930626e-13
 9.48930626e-13
 1.61529984e-10
 1.61529984e-10
 1.61529984e-10
 1.61529984e-10
 1.61529984e-10
 1.61529984e-10
 1.61529984e-10
 1.61529984e-10
 1.61529984e-10
 1.61529984e-10
 1.61529984e-10
 1.61529984e-10
 1.31387856e-10
 1.31387856e-10
 1.31387856e-10
 1.31387856e-10
 1.31387856e-10
 1.31387856e-10
 1.31387856e-10
 1.31387856e-10
 1.79784395e-10
 1.79784395e-10
 1.79784395e-10
 1.79784395e-10
 1.79784395e-10
 1.79784395e-10
 1.79784395e-10
 1.79784395e-10
 1.79784395e-10
 1.79784395e-10
 1.79784395e-10
 1.79784395e-10
 1.79784395e-10
 1.79784395e-10
 1.20992966e-10
 1.20992966e-10
 1.20992966e-10
 1.20992966e-10
 1.20992966e-10
 1.20992966e-10
 1.20992966e-10
 1.20992966e-10
 1.20992966e-10
 1.20992966e-10
 3.92304269e-11
 3.92304269e-11
 3.92304269e-11
 3.92304269e-11
 2.50774871e-11
 2.58749079e-11
 2.58749079e-11
 2.58749079e-11
 2.58749079e-11
 2.14331244e-11
 2.14331244e-11
 1.00795724e-11
 1.00795724e-11
 9.70771364e-12
 9.70771364e-12
)
)
1
(
101
(
 1.06515572e-13
 1.06515572e-13
 1.06515572e-13
 1.06515572e-13
 1.06515572e-13
 1.06515572e-13
 9.48930626e-13
 9.48930626e-13
 9.48930626e-13
 9.48930626e-13
 9.48930626e-13
 9.48930626e-13
 9.48930626e-13
 9.48930626e-13
 9.48930626e-13
 9.48930626e-13
 9.48930626e-13
 9.48930626e-13
 9.48930626e-13
 9.48930626e-13
 9.48930626e-13
 9.48930626e-13
 9.48930626e-13
 9.48930626e-13
 9.48930626e-13
 9.48930626e-13
 9.48930626e-13
 9.48930626e-13
 9.48930626e-13
 9.48930626e-13
 9.48930626e-13
 9.48930626e-13
 9.48930626e-13
 9.48930626e-13
 9.48930626e-13
 9.48930626e-13
 9.48930626e-13
 9.48930626e-13
 9.48930626e-13
 9.48930626e-13
 9.48930626e-13
 9.48930626e-13
 1.61529984e-10
 1.61529984e-10
 1.61529984e-10
 1.61529984e-10
 1.61529984e-10
 1.61529984e-10
 1.61529984e-10
 1.61529984e-10
 1.61529984e-10
 1.61529984e-10
 1.61529984e-10
 1.61529984e-10
 1.61529984e-10
 1.31387856e-10
 1.31387856e-10
 1.31387856e-10
 1.31387856e-10
 1.31387856e-10
 1.31387856e-10
 1.31387856e-10
 1.31387856e-10
 1.79784395e-10
 1.79784395e-10
 1.79784395e-10
 1.79784395e-10
 1.79784395e-10
 1.79784395e-10
 1.79784395e-10
 1.79784395e-10
 1.79784395e-10
 1.79784395e-10
 1.79784395e-10
 1.79784395e-10
 1.79784395e-10
 1.79784395e-10
 1.20992966e-10
 1.20992966e-10
 1.20992966e-10
 1.20992966e-10
 1.20992966e-10
 1.20992966e-10
 1.20992966e-10
 1.20992966e-10
 1.20992966e-10
 1.20992966e-10
 3.92304269e-11
 3.92304269e-11
 3.92304269e-11
 3.92304269e-11
 2.50774871e-11
 2.50774871e-11
 1.63871136e-11
 1.63871136e-11
 1.63871136e-11
 2.14331244e-11
 2.14331244e-11
 1.00795724e-11
 1.00795724e-11
 9.70771364e-12
)
)
1
(
101
(
 2.15016934e-13
 2.15016934e-13
 2.15016934e-13
 9.48930626e-13
 9.48930626e-13
 9.48930626e-13
 9.48930626e-13
 9.48930626e-13
 9.48930626e-13
 9.48930626e-13
 9.48930626e-13
 9.48930626e-13
 9.48930626e-13
 9.48930626e-13
 9.48930626e-13
 9.48930626e-13
 9.48930626e-13
 9.48930626e-13
 9.48930626e-13
 9.48930626e-13
 9.48930626e-13
 9.48930626e-13
 9.48930626e-13
 9.48930626e-13
 9.48930626e-13
 9.48930626e-13
 9.48930626e-13
 9.48930626e-13
 9.48930626e-13
 9.48930626e-13
 9.48930626e-13
 9.48930626e-13
 9.48930626e-13
 9.48930626e-13
 9.48930626e-13
 9.48930626e-13
 9.48930626e-13
 9.48930626e-13
 9.48930626e-13
 9.48930626e-13
 9.48930626e-13
 9.48801016e-11
 1.61529984e-10
 1.61529984e-10
 1.61529984e-10
 1.61529984e-10
 1.61529984e-10
 1.61529984e-10
 1.61529984e-10
 1.61529984e-10
 1.61529984e-10
 1.61529984e-10
 1.61529984e-10
 1.61529984e-10
 1.61529984e-10
 1.61529984e-10
 1.31387856e-10
 1.31387856e-10
 1.31387856e-10
 1.31387856e-10
 1.31387856e-10
 1.31387856e-10
 1.31387856e-10
 1.31387856e-10
 1.31387856e-10
 1.79784395e-10
 1.79784395e-10
 1.79784395e-10
 1.79784395e-10
 1.79784395e-10
 1.79784395e-10
 1.79784395e-10
 1.79784395e-10
 1.79784395e-10
 1.79784395e-10
 1.79784395e-10
 1.79784395e-10
 1.79784395e-10
 1.20992966e-10
 1.20992966e-10
 1.20992966e-10
 1.20992966e-10
 1.20992966e-10
 1.20992966e-10
 1.20992966e-10
 1.20992966e-10
 1.20992966e-10
 1.20992966e-10
 3.92304269e-11
 3.92304269e-11
 3.92304269e-11
 3.92304269e-11
 2.50774871e-11
 2.50774871e-11
 1.63871136e-11
 1.63871136e-11
 1.63871136e-11
 1.63871136e-11
 2.14331244e-11
 1.00795724e-11
 1.00795724e-11
)
)
1
(
101
(
 1.68340675e-13
 1.68340675e-13
 9.48930626e-13
 9.48930626e-13
 9.48930626e-13
 9.48930626e-13
 9.48930626e-13
 9.48930626e-13
 9.48930626e-13
 9.48930626e-13
 9.48930626e-13
 9.48930626e-13
 9.48930626e-13
 9.48930626e-13
 9.48930626e-13
 9.48930626e-13
 9.48930626e-13
 9.48930626e-13
 9.48930626e-13
 9.48930626e-13
 9.48930626e-13
 9.48930626e-13
 9.48930626e-13
 9.48930626e-13
 9.48930626e-13
 9.48930626e-13
 9.48930626e-13
 9.48930626e-13
 9.48930626e-13
 9.48930626e-13
 9.48930626e-13
 9.48930626e-13
 9.48930626e-13
 9.48930626e-13
 9.48930626e-13
 9.48930626e-13
 9.48930626e-13
 9.48930626e-13
 9.48930626e-13
 9.48930626e-13
 9.48930626e-13
 9.48801016e-11
 9.48801016e-11
 1.61529984e-10
 1.61529984e-10
 1.61529984e-10
 1.61529984e-10
 1.61529984e-10
 1.61529984e-10
 1.61529984e-10
 1.61529984e-10
 1.61529984e-10
 1.61529984e-10
 1.61529984e-10
 1.61529984e-10
 1.61529984e-10
 1.61529984e-10
 1.31387856e-10
 1.31387856e-10
 1.31387856e-10
 1.31387856e-10
 1.31387856e-10
 1.31387856e-10
 1.31387856e-10
 1.31387856e-10
 1.31387856e-10
 1.79784395e-10
 1.79784395e-10
 1.79784395e-10
 1.79784395e-10
 1.79784395e-10
 1.79784395e-10
 1.79784395e-10
 1.79784395e-10
 1.79784395e-10
 1.79784395e-10
 1.79784395e-10
 1.79784395e-10
 1.79784395e-10
 1.79784395e-10
 1.20992966e-10
 1.20992966e-10
 1.20992966e-10
 1.20992966e-10
 1.20992966e-10
 1.20992966e-10
 1.20992966e-10
 1.20992966e-10
 3.38512167e-11
 3.92304269e-11
 3.92304269e-11
 3.92304269e-11
 8.54464160e-12
 8.54464160e-12
 8.54464160e-12
 1.63871136e-11
 1.63871136e-11
 1.63871136e-11
 1.63871136e-11
 1.63871136e-11
 1.00795724e-11
)
)
1
(
101
(
 6.59090587e-16
 9.48930626e-13
 9.48930626e-13
 9.48930626e-13
 9.48930626e-13
 9.48930626e-13
 9.48930626e-13
 9.48930626e-13
 9.48930626e-13
 9.48930626e-13
 9.48930626e-13
 9.48930626e-13
 9.48930626e-13
 9.48930626e-13
 9.48930626e-13
 9.48930626e-13
 9.48930626e-13
 9.48930626e-13
 9.48930626e-13
 9.48930626e-13
 9.48930626e-13
 9.48930626e-13
 9.48930626e-13
 9.48930626e-13
 9.48930626e-13
 9.48930626e-13
 9.48930626e-13
 9.48930626e-13
 9.48930626e-13
 9.48930626e-13
 9.48930626e-13
 9.48930626e-13
 9.48930626e-13
 9.48930626e-13
 9.48930626e-13
 9.48930626e-13
 9.48930626e-13
 9.48930626e-13
 9.48930626e-13
 9.48930626e-13
 9.48801016e-11
 9.48801016e-11
 9.48801016e-11
 9.48801016e-11
 1.61529984e-10
 1.61529984e-10
 1.61529984e-10
 1.61529984e-10
 1.61529984e-10
 1.61529984e-10
 1.61529984e-10
 1.61529984e-10
 1.61529984e-10
 1.61529984e-10
 1.61529984e-10
 1.61529984e-10
 1.61529984e-10
 1.61529984e-10
 1.31387856e-10
 1.31387856e-10
 1.31387856e-10
 1.31387856e-10
 1.31387856e-10
 1.31387856e-10
 1.31387856e-10
 1.31387856e-10
 1.31387856e-10
 1.31387856e-10
 1.79784395e-10
 1.79784395e-10
 1.79784395e-10
 1.79784395e-10
 1.79784395e-10
 1.79784395e-10
 1.79784395e-10
 1.79784395e-10
 1.79784395e-10
 1.79784395e-10
 1.79784395e-10
 1.79784395e-10
 1.79784395e-10
 7.74939645e-11
 1.20992966e-10
 1.20992966e-10
 1.20992966e-10
 1.20992966e-10
 1.20992966e-10
 1.20992966e-10
 1.20992966e-10
 3.38512167e-11
 3.38512167e-11
 1.80539808e-11
 1.80539808e-11
 8.54464160e-12
 8.54464160e-12
 8.54464160e-12
 8.54464160e-12
 1.63871136e-11
 1.63871136e-11
 1.63871136e-11
 1.63871136e-11
)
)
1
(
101
(
 6.59090587e-16
 8.94489994e-13
 8.94489994e-13
 8.94489994e-13
 8.94489994e-13
 8.94489994e-13
 8.94489994e-13
 8.94489994e-13
 8.94489994e-13
 8.94489994e-13
 8.94489994e-13
 8.94489994e-13
 8.94489994e-13
 8.94489994e-13
 8.94489994e-13
 8.94489994e-13
 8.94489994e-13
 8.94489994e-13
 8.94489994e-13
 8.94489994e-13
 8.94489994e-13
 8.94489994e-13
 8.94489994e-13
 8.94489994e-13
 8.94489994e-13
 8.94489994e-13
 8.94489994e-13
 8.94489994e-13
 8.94489994e-13
 8.94489994e-13
 8.94489994e-13
 8.94489994e-13
 8.94489994e-13
 8.94489994e-13
 8.94489994e-13
 8.94489994e-13
 8.94489994e-13
 8.94489994e-13
 8.94489994e-13
 8.94489994e-13
 9.48801016e-11
 9.48801016e-11
 9.48801016e-11
 9.48801016e-11
 9.48801016e-11
 1.61529984e-10
 1.61529984e-10
 1.61529984e-10
 1.61529984e-10
 1.61529984e-10
 1.61529984e-10
 1.61529984e-10
 1.61529984e-10
 1.61529984e-10
 1.61529984e-10
 1.61529984e-10
 1.61529984e-10
 1.61529984e-10
 1.61529984e-10
 1.31387856e-10
 1.31387856e-10
 1.31387856e-10
 1.31387856e-10
 1.31387856e-10
 1.31387856e-10
 1.31387856e-10
 1.31387856e-10
 1.31387856e-10
 1.31387856e-10
 1.79784395e-10
 1.79784395e-10
 1.79784395e-10
 1.79784395e-10
 1.79784395e-10
 1.79784395e-10
 1.79784395e-10
 1.79784395e-10
 1.79784395e-10
 1.79784395e-10
 1.79784395e-10
 1.79784395e-10
 1.79784395e-10
 7.74939645e-11
 7.74939645e-11
 1.20992966e-10
 1.20992966e-10
 1.20992966e-10
 1.20992966e-10
 1.20992966e-10
 3.38512167e-11
 3.38512167e-11
 3.38512167e-11
 1.80539808e-11
 1.80539808e-11
 8.54464160e-12
 8.54464160e-12
 8.54464160e-12
 8.54464160e-12
 8.54464160e-12
 1.63871136e-11
 1.63871136e-11
)
)
1
(
101
(
 1.71674959e-12
 1.71674959e-12
 1.71674959e-12
 1.71674959e-12
 1.71674959e-12
 1.71674959e-12
 1.71674959e-12
 1.71674959e-12
 1.71674959e-12
 1.71674959e-12
 1.71674959e-12
 1.71674959e-12
 1.71674959e-12
 1.71674959e-12
 1.71674959e-12
 1.71674959e-12
 1.71674959e-12
 1.71674959e-12
 1.71674959e-12
 1.71674959e-12
 1.71674959e-12
 1.71674959e-12
 1.71674959e-12
 1.71674959e-12
 1.71674959e-12
 1.71674959e-12
 1.71674959e-12
 1.71674959e-12
 1.71674959e-12
 1.71674959e-12
 1.71674959e-12
 1.71674959e-12
 1.71674959e-12
 1.71674959e-12
 1.71674959e-12
 1.71674959e-12
 1.71674959e-12
 1.71674959e-12
 1.71674959e-12
 1.71674959e-12
 9.48801016e-11
 9.48801016e-11
 9.48801016e-11
 9.48801016e-11
 9.48801016e-11
 9.48801016e-11
 1.61529984e-10
 1.61529984e-10
 1.61529984e-10
 1.61529984e-10
 1.61529984e-10
 1.61529984e-10
 1.61529984e-10
 1.61529984e-10
 1.61529984e-10
 1.61529984e-10
 1.61529984e-10
 1.61529984e-10
 1.61529984e-10
 1.61529984e-10
 1.61529984e-10
 1.31387856e-10
 1.31387856e-10
 1.31387856e-10
 1.31387856e-10
 1.31387856e-10
 1.31387856e-10
 1.31387856e-10
 1.31387856e-10
 1.31387856e-10
 1.31387856e-10
 1.79784395e-10
 1.79784395e-10
 1.79784395e-10
 1.79784395e-10
 1.79784395e-10
 1.79784395e-10
 1.79784395e-10
 1.79784395e-10
 1.79784395e-10
 1.79784395e-10
 1.79784395e-10
 1.79784395e-10
 7.74939645e-11
 7.74939645e-11
 7.74939645e-11
 1.20992966e-10
 1.20992966e-10
 1.20992966e-10
 1.20992966e-10
 3.38512167e-11
 3.38512167e-11
 3.38512167e-11
 1.80539808e-11
 1.80539808e-11
 8.54464160e-12
 8.54464160e-12
 8.54464160e-12
 8.54464160e-12
 8.54464160e-12
 8.54464160e-12
)
)
1
(
101
(
 2.94149143e-12
 2.94149143e-12
 2.94149143e-12
 2.94149143e-12
 2.94149143e-12
 2.94149143e-12
 2.94149143e-12
 2.94149143e-12
 2.94149143e-12
 2.94149143e-12
 2.94149143e-12
 2.94149143e-12
 2.94149143e-12
 2.94149143e-12
 2.94149143e-12
 2.94149143e-12
 2.94149143e-12
 2.94149143e-12
 2.94149143e-12
 2.94149143e-12
 2.94149143e-12
 2.94149143e-12
 2.94149143e-12
 2.94149143e-12
 2.94149143e-12
 2.94149143e-12
 2.94149143e-12
 2.94149143e-12
 2.94149143e-12
 2.94149143e-12
 2.94149143e-12
 2.94149143e-12
 2.94149143e-12
 2.94149143e-12
 2.94149143e-12
 2.94149143e-12
 2.94149143e-12
 2.94149143e-12
 2.94149143e-12
 9.48801016e-11
 9.48801016e-11
 9.48801016e-11
 9.48801016e-11
 9.48801016e-11
 9.48801016e-11
 9.48801016e-11
 9.48801016e-11
 9.48801016e-11
 1.61529984e-10
 1.61529984e-10
 1.61529984e-10
 1.61529984e-10
 1.61529984e-10
 1.61529984e-10
 1.61529984e-10
 1.61529984e-10
 1.61529984e-10
 1.61529984e-10
 1.61529984e-10
 1.61529984e-10
 1.61529984e-10
 1.61529984e-10
 1.31387856e-10
 1.31387856e-10
 1.31387856e-10
 1.31387856e-10
 1.31387856e-10
 1.31387856e-10
 1.31387856e-10
 1.31387856e-10
 1.31387856e-10
 1.31387856e-10
 1.79784395e-10
 1.79784395e-10
 1.79784395e-10
 1.79784395e-10
 1.79784395e-10
 1.79784395e-10
 1.79784395e-10
 1.79784395e-10
 1.79784395e-10
 1.79784395e-10
 1.79784395e-10
 1.79784395e-10
 7.74939645e-11
 7.74939645e-11
 7.74939645e-11
 7.74939645e-11
 4.72124894e-11
 4.72124894e-11
 4.72124894e-11
 3.38512167e-11
 3.38512167e-11
 3.38512167e-11
 1.80539808e-11
 1.80539808e-11
 8.54464160e-12
 8.54464160e-12
 8.54464160e-12