/*--------------------------------*- C++ -*----------------------------------*\
| =========                 |                                                 |
| \\      /  F ield        | OpenFOAM: The Open Source CFD Toolbox           |
|  \\    /   O peration    | Version:  7                                     |
|   \\  /    A nd          | Web:      http://www.OpenFOAM.com               |
|    \\/     M anipulation |                                                 |
\*---------------------------------------------------------------------------*/

FoamFile
{
    version     2.0;
    format      ascii;
    class       dictionary;
    object      Y_HCN_table;
}

Y_HCN_table
2
(
101
(
1
(
101
(
 2.96256421e-12
 2.96256421e-12
 2.96256421e-12
 2.96256421e-12
 2.96256421e-12
 2.96256421e-12
 2.96256421e-12
 2.96256421e-12
 2.96256421e-12
 2.96256421e-12
 2.96256421e-12
 2.96256421e-12
 2.96256421e-12
 2.96256421e-12
 2.96256421e-12
 2.96256421e-12
 2.96256421e-12
 2.96256421e-12
 2.96256421e-12
 2.96256421e-12
 2.96256421e-12
 2.96256421e-12
 2.96256421e-12
 2.96256421e-12
 2.96256421e-12
 2.96256421e-12
 2.96256421e-12
 2.96256421e-12
 2.96256421e-12
 2.96256421e-12
 2.96256421e-12
 2.96256421e-12
 2.96256421e-12
 2.96256421e-12
 2.96256421e-12
 2.96256421e-12
 2.96256421e-12
 2.96256421e-12
 2.96256421e-12
 2.96256421e-12
 2.96256421e-12
 2.96256421e-12
 2.96256421e-12
 2.96256421e-12
 2.96256421e-12
 2.08162808e-05
 2.08162808e-05
 4.99982329e-06
 4.99982329e-06
 4.99982329e-06
 4.99982329e-06
 4.99982329e-06
 4.99982329e-06
 4.99982329e-06
 4.99982329e-06
 4.99982329e-06
 4.99982329e-06
 4.99982329e-06
 4.99982329e-06
 4.99982329e-06
 4.99982329e-06
 4.99982329e-06
 4.99982329e-06
 3.41480208e-06
 3.41480208e-06
 3.41480208e-06
 3.41480208e-06
 3.41480208e-06
 3.41480208e-06
 3.41480208e-06
 3.41480208e-06
 3.41480208e-06
 3.41480208e-06
 3.41480208e-06
 3.41480208e-06
 5.65532979e-06
 5.65532979e-06
 5.65532979e-06
 5.65532979e-06
 5.65532979e-06
 5.65532979e-06
 5.65532979e-06
 3.17293600e-06
 3.17293600e-06
 3.17293600e-06
 3.17293600e-06
 3.17293600e-06
 3.17293600e-06
 1.54119847e-06
 1.54119847e-06
 1.54119847e-06
 1.54119847e-06
 1.54119847e-06
 1.54119847e-06
 1.54119847e-06
 2.94194048e-07
 2.94194048e-07
 2.94194048e-07
 2.94194048e-07
 2.94194048e-07
 2.52241747e-09
)
)
1
(
101
(
 2.43465298e-10
 2.43465298e-10
 2.43465298e-10
 2.43465298e-10
 2.43465298e-10
 2.43465298e-10
 2.43465298e-10
 2.43465298e-10
 2.43465298e-10
 2.43465298e-10
 2.43465298e-10
 2.43465298e-10
 2.43465298e-10
 2.43465298e-10
 2.43465298e-10
 2.43465298e-10
 2.43465298e-10
 2.43465298e-10
 2.43465298e-10
 2.43465298e-10
 2.43465298e-10
 2.43465298e-10
 2.43465298e-10
 2.43465298e-10
 2.43465298e-10
 2.43465298e-10
 2.43465298e-10
 2.43465298e-10
 2.43465298e-10
 2.43465298e-10
 2.43465298e-10
 2.43465298e-10
 2.43465298e-10
 2.43465298e-10
 2.43465298e-10
 2.43465298e-10
 2.43465298e-10
 2.43465298e-10
 2.43465298e-10
 2.43465298e-10
 2.43465298e-10
 2.43465298e-10
 2.43465298e-10
 2.43465298e-10
 2.43465298e-10
 2.08162808e-05
 2.08162808e-05
 2.08162808e-05
 4.99982329e-06
 4.99982329e-06
 4.99982329e-06
 4.99982329e-06
 4.99982329e-06
 4.99982329e-06
 4.99982329e-06
 4.99982329e-06
 4.99982329e-06
 4.99982329e-06
 4.99982329e-06
 4.99982329e-06
 4.99982329e-06
 4.99982329e-06
 4.99982329e-06
 4.99982329e-06
 4.99982329e-06
 3.41480208e-06
 3.41480208e-06
 3.41480208e-06
 3.41480208e-06
 3.41480208e-06
 3.41480208e-06
 3.41480208e-06
 3.41480208e-06
 3.41480208e-06
 3.41480208e-06
 3.41480208e-06
 3.41480208e-06
 5.65532979e-06
 5.65532979e-06
 5.65532979e-06
 5.65532979e-06
 5.65532979e-06
 5.65532979e-06
 3.17293600e-06
 3.17293600e-06
 3.17293600e-06
 3.17293600e-06
 3.17293600e-06
 3.17293600e-06
 3.17293600e-06
 1.54119847e-06
 1.54119847e-06
 1.54119847e-06
 1.54119847e-06
 1.54119847e-06
 1.54119847e-06
 1.13624173e-06
 2.94194048e-07
 2.94194048e-07
 2.94194048e-07
 1.68611798e-07
)
)
1
(
101
(
 7.37229436e-10
 7.37229436e-10
 7.37229436e-10
 7.37229436e-10
 7.37229436e-10
 7.37229436e-10
 7.37229436e-10
 7.37229436e-10
 7.37229436e-10
 7.37229436e-10
 7.37229436e-10
 7.37229436e-10
 7.37229436e-10
 7.37229436e-10
 7.37229436e-10
 7.37229436e-10
 7.37229436e-10
 7.37229436e-10
 7.37229436e-10
 7.37229436e-10
 7.37229436e-10
 7.37229436e-10
 7.37229436e-10
 7.37229436e-10
 7.37229436e-10
 7.37229436e-10
 7.37229436e-10
 7.37229436e-10
 7.37229436e-10
 7.37229436e-10
 7.37229436e-10
 7.37229436e-10
 7.37229436e-10
 7.37229436e-10
 7.37229436e-10
 7.37229436e-10
 7.37229436e-10
 7.37229436e-10
 7.37229436e-10
 7.37229436e-10
 7.37229436e-10
 7.37229436e-10
 7.37229436e-10
 7.37229436e-10
 2.08162808e-05
 2.08162808e-05
 2.08162808e-05
 2.08162808e-05
 2.08162808e-05
 2.08162808e-05
 4.99982329e-06
 4.99982329e-06
 4.99982329e-06
 4.99982329e-06
 4.99982329e-06
 4.99982329e-06
 4.99982329e-06
 4.99982329e-06
 4.99982329e-06
 4.99982329e-06
 4.99982329e-06
 4.99982329e-06
 4.99982329e-06
 4.99982329e-06
 4.99982329e-06
 4.99982329e-06
 3.41480208e-06
 3.41480208e-06
 3.41480208e-06
 3.41480208e-06
 3.41480208e-06
 3.41480208e-06
 3.41480208e-06
 3.41480208e-06
 3.41480208e-06
 3.41480208e-06
 3.41480208e-06
 3.41480208e-06
 5.65532979e-06
 5.65532979e-06
 5.65532979e-06
 5.65532979e-06
 5.65532979e-06
 5.65532979e-06
 5.65532979e-06
 3.17293600e-06
 3.17293600e-06
 3.17293600e-06
 3.17293600e-06
 3.17293600e-06
 3.17293600e-06
 1.54119847e-06
 1.54119847e-06
 1.54119847e-06
 1.54119847e-06
 1.54119847e-06
 1.54119847e-06
 1.13624173e-06
 1.13624173e-06
 6.47044628e-07
 6.47044628e-07
)
)
1
(
101
(
 1.02649590e-09
 1.02649590e-09
 1.02649590e-09
 1.02649590e-09
 1.02649590e-09
 1.02649590e-09
 1.02649590e-09
 1.02649590e-09
 1.02649590e-09
 1.02649590e-09
 1.02649590e-09
 1.02649590e-09
 1.02649590e-09
 1.02649590e-09
 1.02649590e-09
 1.02649590e-09
 1.02649590e-09
 1.02649590e-09
 1.02649590e-09
 1.02649590e-09
 1.02649590e-09
 1.02649590e-09
 1.02649590e-09
 1.02649590e-09
 1.02649590e-09
 1.02649590e-09
 1.02649590e-09
 1.02649590e-09
 1.02649590e-09
 1.02649590e-09
 1.02649590e-09
 1.02649590e-09
 1.02649590e-09
 1.02649590e-09
 1.02649590e-09
 1.02649590e-09
 1.02649590e-09
 1.02649590e-09
 1.02649590e-09
 1.02649590e-09
 1.02649590e-09
 1.02649590e-09
 1.02649590e-09
 1.02649590e-09
 3.20781151e-05
 2.08162808e-05
 2.08162808e-05
 2.08162808e-05
 2.08162808e-05
 2.08162808e-05
 2.08162808e-05
 4.99982329e-06
 4.99982329e-06
 4.99982329e-06
 4.99982329e-06
 4.99982329e-06
 4.99982329e-06
 4.99982329e-06
 4.99982329e-06
 4.99982329e-06
 4.99982329e-06
 4.99982329e-06
 4.99982329e-06
 4.99982329e-06
 4.99982329e-06
 4.99982329e-06
 4.99982329e-06
 3.41480208e-06
 3.41480208e-06
 3.41480208e-06
 3.41480208e-06
 3.41480208e-06
 3.41480208e-06
 3.41480208e-06
 3.41480208e-06
 3.41480208e-06
 3.41480208e-06
 3.41480208e-06
 3.41480208e-06
 8.13812323e-06
 5.65532979e-06
 5.65532979e-06
 5.65532979e-06
 5.65532979e-06
 5.65532979e-06
 5.65532979e-06
 3.17293600e-06
 3.17293600e-06
 3.17293600e-06
 3.17293600e-06
 3.17293600e-06
 3.17293600e-06
 3.17293600e-06
 1.54119847e-06
 1.54119847e-06
 1.54119847e-06
 1.54119847e-06
 1.54119847e-06
 1.13624173e-06
 1.24069479e-06
 1.24069479e-06
)
)
1
(
101
(
 1.82576420e-09
 1.82576420e-09
 1.82576420e-09
 1.82576420e-09
 1.82576420e-09
 1.82576420e-09
 1.82576420e-09
 1.82576420e-09
 1.82576420e-09
 1.82576420e-09
 1.82576420e-09
 1.82576420e-09
 1.82576420e-09
 1.82576420e-09
 1.82576420e-09
 1.82576420e-09
 1.82576420e-09
 1.82576420e-09
 1.82576420e-09
 1.82576420e-09
 1.82576420e-09
 1.82576420e-09
 1.82576420e-09
 1.82576420e-09
 1.82576420e-09
 1.82576420e-09
 1.82576420e-09
 1.82576420e-09
 1.82576420e-09
 1.82576420e-09
 1.82576420e-09
 1.82576420e-09
 1.82576420e-09
 1.82576420e-09
 1.82576420e-09
 1.82576420e-09
 1.82576420e-09
 1.82576420e-09
 1.82576420e-09
 1.82576420e-09
 1.82576420e-09
 1.82576420e-09
 1.82576420e-09
 1.82576420e-09
 3.20781151e-05
 3.20781151e-05
 3.20781151e-05
 2.08162808e-05
 2.08162808e-05
 2.08162808e-05
 2.08162808e-05
 2.08162808e-05
 2.08162808e-05
 4.99982329e-06
 4.99982329e-06
 4.99982329e-06
 4.99982329e-06
 4.99982329e-06
 4.99982329e-06
 4.99982329e-06
 4.99982329e-06
 4.99982329e-06
 4.99982329e-06
 4.99982329e-06
 4.99982329e-06
 4.99982329e-06
 4.99982329e-06
 4.99982329e-06
 3.41480208e-06
 3.41480208e-06
 3.41480208e-06
 3.41480208e-06
 3.41480208e-06
 3.41480208e-06
 3.41480208e-06
 3.41480208e-06
 3.41480208e-06
 3.41480208e-06
 3.41480208e-06
 3.41480208e-06
 8.13812323e-06
 5.65532979e-06
 5.65532979e-06
 5.65532979e-06
 5.65532979e-06
 5.65532979e-06
 5.65532979e-06
 5.65532979e-06
 3.17293600e-06
 3.17293600e-06
 3.17293600e-06
 3.17293600e-06
 3.17293600e-06
 3.17293600e-06
 3.30506799e-06
 1.54119847e-06
 1.54119847e-06
 1.54119847e-06
 1.89374248e-06
 1.89374248e-06
 1.24069479e-06
)
)
1
(
101
(
 2.25360064e-09
 2.25360064e-09
 2.25360064e-09
 2.25360064e-09
 2.25360064e-09
 2.25360064e-09
 2.25360064e-09
 2.25360064e-09
 2.25360064e-09
 2.25360064e-09
 2.25360064e-09
 2.25360064e-09
 2.25360064e-09
 2.25360064e-09
 2.25360064e-09
 2.25360064e-09
 2.25360064e-09
 2.25360064e-09
 2.25360064e-09
 2.25360064e-09
 2.25360064e-09
 2.25360064e-09
 2.25360064e-09
 2.25360064e-09
 2.25360064e-09
 2.25360064e-09
 2.25360064e-09
 2.25360064e-09
 2.25360064e-09
 2.25360064e-09
 2.25360064e-09
 2.25360064e-09
 2.25360064e-09
 2.25360064e-09
 2.25360064e-09
 2.25360064e-09
 2.25360064e-09
 2.25360064e-09
 2.25360064e-09
 2.25360064e-09
 2.25360064e-09
 2.25360064e-09
 1.71212594e-08
 3.20781151e-05
 3.20781151e-05
 3.20781151e-05
 3.20781151e-05
 3.20781151e-05
 2.08162808e-05
 2.08162808e-05
 2.08162808e-05
 2.08162808e-05
 2.08162808e-05
 2.08162808e-05
 4.99982329e-06
 4.99982329e-06
 4.99982329e-06
 4.99982329e-06
 4.99982329e-06
 4.99982329e-06
 4.99982329e-06
 4.99982329e-06
 4.99982329e-06
 4.99982329e-06
 4.99982329e-06
 4.99982329e-06
 4.99982329e-06
 4.99982329e-06
 4.99982329e-06
 4.99982329e-06
 3.41480208e-06
 3.41480208e-06
 3.41480208e-06
 3.41480208e-06
 3.41480208e-06
 3.41480208e-06
 3.41480208e-06
 3.41480208e-06
 3.41480208e-06
 3.41480208e-06
 3.41480208e-06
 8.13812323e-06
 8.13812323e-06
 5.65532979e-06
 5.65532979e-06
 5.65532979e-06
 5.65532979e-06
 5.65532979e-06
 5.65532979e-06
 3.17293600e-06
 3.17293600e-06
 3.17293600e-06
 3.17293600e-06
 3.17293600e-06
 3.17293600e-06
 3.30506799e-06
 3.30506799e-06
 2.43911917e-06
 2.43911917e-06
 1.89374248e-06
 1.89374248e-06
)
)
1
(
101
(
 2.89327443e-09
 2.89327443e-09
 2.89327443e-09
 2.89327443e-09
 2.89327443e-09
 2.89327443e-09
 2.89327443e-09
 2.89327443e-09
 2.89327443e-09
 2.89327443e-09
 2.89327443e-09
 2.89327443e-09
 2.89327443e-09
 2.89327443e-09
 2.89327443e-09
 2.89327443e-09
 2.89327443e-09
 2.89327443e-09
 2.89327443e-09
 2.89327443e-09
 2.89327443e-09
 2.89327443e-09
 2.89327443e-09
 2.89327443e-09
 2.89327443e-09
 2.89327443e-09
 2.89327443e-09
 2.89327443e-09
 2.89327443e-09
 2.89327443e-09
 2.89327443e-09
 2.89327443e-09
 2.89327443e-09
 1.71212594e-08
 1.71212594e-08
 1.71212594e-08
 1.71212594e-08
 1.71212594e-08
 1.71212594e-08
 1.71212594e-08
 1.71212594e-08
 1.71212594e-08
 1.71212594e-08
 3.20781151e-05
 3.20781151e-05
 3.20781151e-05
 3.20781151e-05
 3.20781151e-05
 3.20781151e-05
 2.08162808e-05
 2.08162808e-05
 2.08162808e-05
 2.08162808e-05
 2.08162808e-05
 2.08162808e-05
 2.08162808e-05
 4.99982329e-06
 4.99982329e-06
 4.99982329e-06
 4.99982329e-06
 4.99982329e-06
 4.99982329e-06
 4.99982329e-06
 4.99982329e-06
 4.99982329e-06
 4.99982329e-06
 4.99982329e-06
 4.99982329e-06
 4.99982329e-06
 4.99982329e-06
 4.99982329e-06
 3.41480208e-06
 3.41480208e-06
 3.41480208e-06
 3.41480208e-06
 3.41480208e-06
 3.41480208e-06
 3.41480208e-06
 3.41480208e-06
 3.41480208e-06
 3.41480208e-06
 3.41480208e-06
 8.13812323e-06
 8.13812323e-06
 5.65532979e-06
 5.65532979e-06
 5.65532979e-06
 5.65532979e-06
 5.65532979e-06
 5.65532979e-06
 5.65532979e-06
 3.17293600e-06
 3.17293600e-06
 3.17293600e-06
 3.17293600e-06
 3.17293600e-06
 3.30506799e-06
 3.30506799e-06
 2.43911917e-06
 2.43911917e-06
 1.89374248e-06
)
)
1
(
101
(
 4.09355580e-09
 4.09355580e-09
 4.09355580e-09
 4.09355580e-09
 4.09355580e-09
 4.09355580e-09
 4.09355580e-09
 4.09355580e-09
 4.09355580e-09
 4.09355580e-09
 4.09355580e-09
 4.09355580e-09
 4.09355580e-09
 4.09355580e-09
 4.09355580e-09
 4.09355580e-09
 4.09355580e-09
 4.09355580e-09
 4.09355580e-09
 4.09355580e-09
 4.09355580e-09
 4.09355580e-09
 4.09355580e-09
 4.09355580e-09
 4.09355580e-09
 4.09355580e-09
 1.71212594e-08
 1.71212594e-08
 1.71212594e-08
 1.71212594e-08
 1.71212594e-08
 1.71212594e-08
 1.71212594e-08
 1.71212594e-08
 1.71212594e-08
 1.71212594e-08
 1.71212594e-08
 1.71212594e-08
 1.71212594e-08
 1.71212594e-08
 1.71212594e-08
 1.71212594e-08
 1.71212594e-08
 3.20781151e-05
 3.20781151e-05
 3.20781151e-05
 3.20781151e-05
 3.20781151e-05
 3.20781151e-05
 3.20781151e-05
 2.08162808e-05
 2.08162808e-05
 2.08162808e-05
 2.08162808e-05
 2.08162808e-05
 2.08162808e-05
 2.08162808e-05
 4.99982329e-06
 4.99982329e-06
 4.99982329e-06
 4.99982329e-06
 4.99982329e-06
 4.99982329e-06
 4.99982329e-06
 4.99982329e-06
 4.99982329e-06
 4.99982329e-06
 4.99982329e-06
 4.99982329e-06
 4.99982329e-06
 4.99982329e-06
 4.99982329e-06
 3.41480208e-06
 3.41480208e-06
 3.41480208e-06
 3.41480208e-06
 3.41480208e-06
 3.41480208e-06
 3.41480208e-06
 3.41480208e-06
 3.41480208e-06
 3.41480208e-06
 3.41480208e-06
 8.13812323e-06
 8.13812323e-06
 8.13812323e-06
 5.65532979e-06
 5.65532979e-06
 5.65532979e-06
 5.65532979e-06
 5.65532979e-06
 5.65532979e-06
 4.97107165e-06
 3.17293600e-06
 3.17293600e-06
 3.17293600e-06
 3.88283827e-06
 3.88283827e-06
 3.88283827e-06
 2.43911917e-06
 2.43911917e-06
)
)
1
(
101
(
 4.06463994e-09
 4.06463994e-09
 4.06463994e-09
 4.06463994e-09
 4.06463994e-09
 4.06463994e-09
 4.06463994e-09
 4.06463994e-09
 4.06463994e-09
 4.06463994e-09
 4.06463994e-09
 4.06463994e-09
 4.06463994e-09
 4.06463994e-09
 4.06463994e-09
 4.06463994e-09
 4.06463994e-09
 4.06463994e-09
 4.06463994e-09
 1.71212594e-08
 1.71212594e-08
 1.71212594e-08
 1.71212594e-08
 1.71212594e-08
 1.71212594e-08
 1.71212594e-08
 1.71212594e-08
 1.71212594e-08
 1.71212594e-08
 1.71212594e-08
 1.71212594e-08
 1.71212594e-08
 1.71212594e-08
 1.71212594e-08
 1.71212594e-08
 1.71212594e-08
 1.71212594e-08
 1.71212594e-08
 1.71212594e-08
 1.71212594e-08
 1.71212594e-08
 1.71212594e-08
 3.20781151e-05
 3.20781151e-05
 3.20781151e-05
 3.20781151e-05
 3.20781151e-05
 3.20781151e-05
 3.20781151e-05
 3.20781151e-05
 3.20781151e-05
 2.08162808e-05
 2.08162808e-05
 2.08162808e-05
 2.08162808e-05
 2.08162808e-05
 2.08162808e-05
 2.08162808e-05
 2.08162808e-05
 4.99982329e-06
 4.99982329e-06
 4.99982329e-06
 4.99982329e-06
 4.99982329e-06
 4.99982329e-06
 4.99982329e-06
 4.99982329e-06
 4.99982329e-06
 4.99982329e-06
 4.99982329e-06
 4.99982329e-06
 4.99982329e-06
 4.99982329e-06
 3.41480208e-06
 3.41480208e-06
 3.41480208e-06
 3.41480208e-06
 3.41480208e-06
 3.41480208e-06
 3.41480208e-06
 3.41480208e-06
 3.41480208e-06
 3.41480208e-06
 3.41480208e-06
 8.13812323e-06
 8.13812323e-06
 8.13812323e-06
 5.65532979e-06
 5.65532979e-06
 5.65532979e-06
 5.65532979e-06
 5.65532979e-06
 5.65532979e-06
 4.97107165e-06
 4.97107165e-06
 5.25258887e-06
 5.25258887e-06
 3.88283827e-06
 3.88283827e-06
 3.88283827e-06
 3.88283827e-06
)
)
1
(
101
(
 5.38865491e-09
 5.38865491e-09
 5.38865491e-09
 5.38865491e-09
 5.38865491e-09
 5.38865491e-09
 5.38865491e-09
 5.38865491e-09
 5.38865491e-09
 5.38865491e-09
 5.38865491e-09
 5.38865491e-09
 5.38865491e-09
 5.38865491e-09
 1.71212594e-08
 1.71212594e-08
 1.71212594e-08
 1.71212594e-08
 1.71212594e-08
 1.71212594e-08
 1.71212594e-08
 1.71212594e-08
 1.71212594e-08
 1.71212594e-08
 1.71212594e-08
 1.71212594e-08
 1.71212594e-08
 1.71212594e-08
 1.71212594e-08
 1.71212594e-08
 1.71212594e-08
 1.71212594e-08
 1.71212594e-08
 1.71212594e-08
 1.71212594e-08
 1.71212594e-08
 1.71212594e-08
 1.71212594e-08
 1.71212594e-08
 1.71212594e-08
 1.71212594e-08
 1.71212594e-08
 3.20781151e-05
 3.20781151e-05
 3.20781151e-05
 3.20781151e-05
 3.20781151e-05
 3.20781151e-05
 3.20781151e-05
 3.20781151e-05
 3.20781151e-05
 3.20781151e-05
 2.08162808e-05
 2.08162808e-05
 2.08162808e-05
 2.08162808e-05
 2.08162808e-05
 2.08162808e-05
 2.08162808e-05
 2.08162808e-05
 4.99982329e-06
 4.99982329e-06
 4.99982329e-06
 4.99982329e-06
 4.99982329e-06
 4.99982329e-06
 4.99982329e-06
 4.99982329e-06
 4.99982329e-06
 4.99982329e-06
 4.99982329e-06
 4.99982329e-06
 4.99982329e-06
 4.99982329e-06
 4.99982329e-06
 3.41480208e-06
 3.41480208e-06
 3.41480208e-06
 3.41480208e-06
 3.41480208e-06
 3.41480208e-06
 3.41480208e-06
 3.41480208e-06
 3.41480208e-06
 3.41480208e-06
 8.13812323e-06
 8.13812323e-06
 8.13812323e-06
 8.13812323e-06
 5.65532979e-06
 5.65532979e-06
 5.65532979e-06
 5.65532979e-06
 5.65532979e-06
 4.97107165e-06
 4.97107165e-06
 5.25258887e-06
 5.25258887e-06
 3.88283827e-06
 3.88283827e-06
 3.88283827e-06
)
)
1
(
101
(
 5.82245347e-09
 5.82245347e-09
 5.82245347e-09
 5.82245347e-09
 5.82245347e-09
 5.82245347e-09
 5.82245347e-09
 5.82245347e-09
 5.82245347e-09
 1.71212594e-08
 1.71212594e-08
 1.71212594e-08
 1.71212594e-08
 1.71212594e-08
 1.71212594e-08
 1.71212594e-08
 1.71212594e-08
 1.71212594e-08
 1.71212594e-08
 1.71212594e-08
 1.71212594e-08
 1.71212594e-08
 1.71212594e-08
 1.71212594e-08
 1.71212594e-08
 1.71212594e-08
 1.71212594e-08
 1.71212594e-08
 1.71212594e-08
 1.71212594e-08
 1.71212594e-08
 1.71212594e-08
 1.71212594e-08
 1.71212594e-08
 1.71212594e-08
 1.71212594e-08
 1.71212594e-08
 1.71212594e-08
 1.71212594e-08
 1.71212594e-08
 1.71212594e-08
 1.71212594e-08
 3.20781151e-05
 3.20781151e-05
 3.20781151e-05
 3.20781151e-05
 3.20781151e-05
 3.20781151e-05
 3.20781151e-05
 3.20781151e-05
 3.20781151e-05
 3.20781151e-05
 3.20781151e-05
 3.20781151e-05
 2.08162808e-05
 2.08162808e-05
 2.08162808e-05
 2.08162808e-05
 2.08162808e-05
 2.08162808e-05
 2.08162808e-05
 2.08162808e-05
 4.99982329e-06
 4.99982329e-06
 4.99982329e-06
 4.99982329e-06
 4.99982329e-06
 4.99982329e-06
 4.99982329e-06
 4.99982329e-06
 4.99982329e-06
 4.99982329e-06
 4.99982329e-06
 4.99982329e-06
 4.99982329e-06
 4.99982329e-06
 3.41480208e-06
 3.41480208e-06
 3.41480208e-06
 3.41480208e-06
 3.41480208e-06
 3.41480208e-06
 3.41480208e-06
 3.41480208e-06
 3.41480208e-06
 3.41480208e-06
 8.13812323e-06
 8.13812323e-06
 8.13812323e-06
 8.13812323e-06
 7.81355605e-06
 5.65532979e-06
 5.65532979e-06
 5.65532979e-06
 5.65532979e-06
 4.97107165e-06
 4.97107165e-06
 5.25258887e-06
 5.25258887e-06
 3.88283827e-06
 3.88283827e-06
)
)
1
(
101
(
 6.15232560e-09
 6.15232560e-09
 6.15232560e-09
 6.15232560e-09
 6.15232560e-09
 6.15232560e-09
 1.71212594e-08
 1.71212594e-08
 1.71212594e-08
 1.71212594e-08
 1.71212594e-08
 1.71212594e-08
 1.71212594e-08
 1.71212594e-08
 1.71212594e-08
 1.71212594e-08
 1.71212594e-08
 1.71212594e-08
 1.71212594e-08
 1.71212594e-08
 1.71212594e-08
 1.71212594e-08
 1.71212594e-08
 1.71212594e-08
 1.71212594e-08
 1.71212594e-08
 1.71212594e-08
 1.71212594e-08
 1.71212594e-08
 1.71212594e-08
 1.71212594e-08
 1.71212594e-08
 1.71212594e-08
 1.71212594e-08
 1.71212594e-08
 1.71212594e-08
 1.71212594e-08
 1.71212594e-08
 1.71212594e-08
 1.71212594e-08
 1.71212594e-08
 1.71212594e-08
 3.20781151e-05
 3.20781151e-05
 3.20781151e-05
 3.20781151e-05
 3.20781151e-05
 3.20781151e-05
 3.20781151e-05
 3.20781151e-05
 3.20781151e-05
 3.20781151e-05
 3.20781151e-05
 3.20781151e-05
 3.20781151e-05
 2.08162808e-05
 2.08162808e-05
 2.08162808e-05
 2.08162808e-05
 2.08162808e-05
 2.08162808e-05
 2.08162808e-05
 2.08162808e-05
 4.99982329e-06
 4.99982329e-06
 4.99982329e-06
 4.99982329e-06
 4.99982329e-06
 4.99982329e-06
 4.99982329e-06
 4.99982329e-06
 4.99982329e-06
 4.99982329e-06
 4.99982329e-06
 4.99982329e-06
 4.99982329e-06
 4.99982329e-06
 3.41480208e-06
 3.41480208e-06
 3.41480208e-06
 3.41480208e-06
 3.41480208e-06
 3.41480208e-06
 3.41480208e-06
 3.41480208e-06
 3.41480208e-06
 3.41480208e-06
 8.13812323e-06
 8.13812323e-06
 8.13812323e-06
 8.13812323e-06
 7.81355605e-06
 7.81355605e-06
 7.71365583e-06
 7.71365583e-06
 7.71365583e-06
 4.97107165e-06
 4.97107165e-06
 5.25258887e-06
 5.25258887e-06
 3.88283827e-06
)
)
1
(
101
(
 7.43842370e-09
 7.43842370e-09
 7.43842370e-09
 1.71212594e-08
 1.71212594e-08
 1.71212594e-08
 1.71212594e-08
 1.71212594e-08
 1.71212594e-08
 1.71212594e-08
 1.71212594e-08
 1.71212594e-08
 1.71212594e-08
 1.71212594e-08
 1.71212594e-08
 1.71212594e-08
 1.71212594e-08
 1.71212594e-08
 1.71212594e-08
 1.71212594e-08
 1.71212594e-08
 1.71212594e-08
 1.71212594e-08
 1.71212594e-08
 1.71212594e-08
 1.71212594e-08
 1.71212594e-08
 1.71212594e-08
 1.71212594e-08
 1.71212594e-08
 1.71212594e-08
 1.71212594e-08
 1.71212594e-08
 1.71212594e-08
 1.71212594e-08
 1.71212594e-08
 1.71212594e-08
 1.71212594e-08
 1.71212594e-08
 1.71212594e-08
 1.71212594e-08
 4.86345450e-05
 3.20781151e-05
 3.20781151e-05
 3.20781151e-05
 3.20781151e-05
 3.20781151e-05
 3.20781151e-05
 3.20781151e-05
 3.20781151e-05
 3.20781151e-05
 3.20781151e-05
 3.20781151e-05
 3.20781151e-05
 3.20781151e-05
 3.20781151e-05
 2.08162808e-05
 2.08162808e-05
 2.08162808e-05
 2.08162808e-05
 2.08162808e-05
 2.08162808e-05
 2.08162808e-05
 2.08162808e-05
 2.08162808e-05
 4.99982329e-06
 4.99982329e-06
 4.99982329e-06
 4.99982329e-06
 4.99982329e-06
 4.99982329e-06
 4.99982329e-06
 4.99982329e-06
 4.99982329e-06
 4.99982329e-06
 4.99982329e-06
 4.99982329e-06
 4.99982329e-06
 3.41480208e-06
 3.41480208e-06
 3.41480208e-06
 3.41480208e-06
 3.41480208e-06
 3.41480208e-06
 3.41480208e-06
 3.41480208e-06
 3.41480208e-06
 3.41480208e-06
 8.13812323e-06
 8.13812323e-06
 8.13812323e-06
 8.13812323e-06
 7.81355605e-06
 7.81355605e-06
 7.71365583e-06
 7.71365583e-06
 7.71365583e-06
 7.71365583e-06
 4.97107165e-06
 5.25258887e-06
 5.25258887e-06
)
)
1
(
101
(
 5.62368397e-09
 5.62368397e-09
 1.71212594e-08
 1.71212594e-08
 1.71212594e-08
 1.71212594e-08
 1.71212594e-08
 1.71212594e-08
 1.71212594e-08
 1.71212594e-08
 1.71212594e-08
 1.71212594e-08
 1.71212594e-08
 1.71212594e-08
 1.71212594e-08
 1.71212594e-08
 1.71212594e-08
 1.71212594e-08
 1.71212594e-08
 1.71212594e-08
 1.71212594e-08
 1.71212594e-08
 1.71212594e-08
 1.71212594e-08
 1.71212594e-08
 1.71212594e-08
 1.71212594e-08
 1.71212594e-08
 1.71212594e-08
 1.71212594e-08
 1.71212594e-08
 1.71212594e-08
 1.71212594e-08
 1.71212594e-08
 1.71212594e-08
 1.71212594e-08
 1.71212594e-08
 1.71212594e-08
 1.71212594e-08
 1.71212594e-08
 1.71212594e-08
 4.86345450e-05
 4.86345450e-05
 3.20781151e-05
 3.20781151e-05
 3.20781151e-05
 3.20781151e-05
 3.20781151e-05
 3.20781151e-05
 3.20781151e-05
 3.20781151e-05
 3.20781151e-05
 3.20781151e-05
 3.20781151e-05
 3.20781151e-05
 3.20781151e-05
 3.20781151e-05
 2.08162808e-05
 2.08162808e-05
 2.08162808e-05
 2.08162808e-05
 2.08162808e-05
 2.08162808e-05
 2.08162808e-05
 2.08162808e-05
 2.08162808e-05
 4.99982329e-06
 4.99982329e-06
 4.99982329e-06
 4.99982329e-06
 4.99982329e-06
 4.99982329e-06
 4.99982329e-06
 4.99982329e-06
 4.99982329e-06
 4.99982329e-06
 4.99982329e-06
 4.99982329e-06
 4.99982329e-06
 4.99982329e-06
 3.41480208e-06
 3.41480208e-06
 3.41480208e-06
 3.41480208e-06
 3.41480208e-06
 3.41480208e-06
 3.41480208e-06
 3.41480208e-06
 1.10972354e-05
 8.13812323e-06
 8.13812323e-06
 8.13812323e-06
 1.17018934e-05
 1.17018934e-05
 1.17018934e-05
 7.71365583e-06
 7.71365583e-06
 7.71365583e-06
 7.71365583e-06
 7.71365583e-06
 5.25258887e-06
)
)
1
(
101
(
 3.63744395e-11
 1.71212594e-08
 1.71212594e-08
 1.71212594e-08
 1.71212594e-08
 1.71212594e-08
 1.71212594e-08
 1.71212594e-08
 1.71212594e-08
 1.71212594e-08
 1.71212594e-08
 1.71212594e-08
 1.71212594e-08
 1.71212594e-08
 1.71212594e-08
 1.71212594e-08
 1.71212594e-08
 1.71212594e-08
 1.71212594e-08
 1.71212594e-08
 1.71212594e-08
 1.71212594e-08
 1.71212594e-08
 1.71212594e-08
 1.71212594e-08
 1.71212594e-08
 1.71212594e-08
 1.71212594e-08
 1.71212594e-08
 1.71212594e-08
 1.71212594e-08
 1.71212594e-08
 1.71212594e-08
 1.71212594e-08
 1.71212594e-08
 1.71212594e-08
 1.71212594e-08
 1.71212594e-08
 1.71212594e-08
 1.71212594e-08
 4.86345450e-05
 4.86345450e-05
 4.86345450e-05
 4.86345450e-05
 3.20781151e-05
 3.20781151e-05
 3.20781151e-05
 3.20781151e-05
 3.20781151e-05
 3.20781151e-05
 3.20781151e-05
 3.20781151e-05
 3.20781151e-05
 3.20781151e-05
 3.20781151e-05
 3.20781151e-05
 3.20781151e-05
 3.20781151e-05
 2.08162808e-05
 2.08162808e-05
 2.08162808e-05
 2.08162808e-05
 2.08162808e-05
 2.08162808e-05
 2.08162808e-05
 2.08162808e-05
 2.08162808e-05
 2.08162808e-05
 4.99982329e-06
 4.99982329e-06
 4.99982329e-06
 4.99982329e-06
 4.99982329e-06
 4.99982329e-06
 4.99982329e-06
 4.99982329e-06
 4.99982329e-06
 4.99982329e-06
 4.99982329e-06
 4.99982329e-06
 4.99982329e-06
 1.07850523e-05
 3.41480208e-06
 3.41480208e-06
 3.41480208e-06
 3.41480208e-06
 3.41480208e-06
 3.41480208e-06
 3.41480208e-06
 1.10972354e-05
 1.10972354e-05
 1.13150235e-05
 1.13150235e-05
 1.17018934e-05
 1.17018934e-05
 1.17018934e-05
 1.17018934e-05
 7.71365583e-06
 7.71365583e-06
 7.71365583e-06
 7.71365583e-06
)
)
1
(
101
(
 3.63744395e-11
 9.18473820e-09
 9.18473820e-09
 9.18473820e-09
 9.18473820e-09
 9.18473820e-09
 9.18473820e-09
 9.18473820e-09
 9.18473820e-09
 9.18473820e-09
 9.18473820e-09
 9.18473820e-09
 9.18473820e-09
 9.18473820e-09
 9.18473820e-09
 9.18473820e-09
 9.18473820e-09
 9.18473820e-09
 9.18473820e-09
 9.18473820e-09
 9.18473820e-09
 9.18473820e-09
 9.18473820e-09
 9.18473820e-09
 9.18473820e-09
 9.18473820e-09
 9.18473820e-09
 9.18473820e-09
 9.18473820e-09
 9.18473820e-09
 9.18473820e-09
 9.18473820e-09
 9.18473820e-09
 9.18473820e-09
 9.18473820e-09
 9.18473820e-09
 9.18473820e-09
 9.18473820e-09
 9.18473820e-09
 9.18473820e-09
 4.86345450e-05
 4.86345450e-05
 4.86345450e-05
 4.86345450e-05
 4.86345450e-05
 3.20781151e-05
 3.20781151e-05
 3.20781151e-05
 3.20781151e-05
 3.20781151e-05
 3.20781151e-05
 3.20781151e-05
 3.20781151e-05
 3.20781151e-05
 3.20781151e-05
 3.20781151e-05
 3.20781151e-05
 3.20781151e-05
 3.20781151e-05
 2.08162808e-05
 2.08162808e-05
 2.08162808e-05
 2.08162808e-05
 2.08162808e-05
 2.08162808e-05
 2.08162808e-05
 2.08162808e-05
 2.08162808e-05
 2.08162808e-05
 4.99982329e-06
 4.99982329e-06
 4.99982329e-06
 4.99982329e-06
 4.99982329e-06
 4.99982329e-06
 4.99982329e-06
 4.99982329e-06
 4.99982329e-06
 4.99982329e-06
 4.99982329e-06
 4.99982329e-06
 4.99982329e-06
 1.07850523e-05
 1.07850523e-05
 3.41480208e-06
 3.41480208e-06
 3.41480208e-06
 3.41480208e-06
 3.41480208e-06
 1.10972354e-05
 1.10972354e-05
 1.10972354e-05
 1.13150235e-05
 1.13150235e-05
 1.17018934e-05
 1.17018934e-05
 1.17018934e-05
 1.17018934e-05
 1.17018934e-05
 7.71365583e-06
 7.71365583e-06
)
)
1
(
101
(
 1.16283684e-08
 1.16283684e-08
 1.16283684e-08
 1.16283684e-08
 1.16283684e-08
 1.16283684e-08
 1.16283684e-08
 1.16283684e-08
 1.16283684e-08
 1.16283684e-08
 1.16283684e-08
 1.16283684e-08
 1.16283684e-08
 1.16283684e-08
 1.16283684e-08
 1.16283684e-08
 1.16283684e-08
 1.16283684e-08
 1.16283684e-08
 1.16283684e-08
 1.16283684e-08
 1.16283684e-08
 1.16283684e-08
 1.16283684e-08
 1.16283684e-08
 1.16283684e-08
 1.16283684e-08
 1.16283684e-08
 1.16283684e-08
 1.16283684e-08
 1.16283684e-08
 1.16283684e-08
 1.16283684e-08
 1.16283684e-08
 1.16283684e-08
 1.16283684e-08
 1.16283684e-08
 1.16283684e-08
 1.16283684e-08
 1.16283684e-08
 4.86345450e-05
 4.86345450e-05
 4.86345450e-05
 4.86345450e-05
 4.86345450e-05
 4.86345450e-05
 3.20781151e-05
 3.20781151e-05
 3.20781151e-05
 3.20781151e-05
 3.20781151e-05
 3.20781151e-05
 3.20781151e-05
 3.20781151e-05
 3.20781151e-05
 3.20781151e-05
 3.20781151e-05
 3.20781151e-05
 3.20781151e-05
 3.20781151e-05
 3.20781151e-05
 2.08162808e-05
 2.08162808e-05
 2.08162808e-05
 2.08162808e-05
 2.08162808e-05
 2.08162808e-05
 2.08162808e-05
 2.08162808e-05
 2.08162808e-05
 2.08162808e-05
 4.99982329e-06
 4.99982329e-06
 4.99982329e-06
 4.99982329e-06
 4.99982329e-06
 4.99982329e-06
 4.99982329e-06
 4.99982329e-06
 4.99982329e-06
 4.99982329e-06
 4.99982329e-06
 4.99982329e-06
 1.07850523e-05
 1.07850523e-05
 1.07850523e-05
 3.41480208e-06
 3.41480208e-06
 3.41480208e-06
 3.41480208e-06
 1.10972354e-05
 1.10972354e-05
 1.10972354e-05
 1.13150235e-05
 1.13150235e-05
 1.17018934e-05
 1.17018934e-05
 1.17018934e-05
 1.17018934e-05
 1.17018934e-05
 1.17018934e-05
)
)
1
(
101
(
 1.33183635e-08
 1.33183635e-08
 1.33183635e-08
 1.33183635e-08
 1.33183635e-08
 1.33183635e-08
 1.33183635e-08
 1.33183635e-08
 1.33183635e-08
 1.33183635e-08
 1.33183635e-08
 1.33183635e-08
 1.33183635e-08
 1.33183635e-08
 1.33183635e-08
 1.33183635e-08
 1.33183635e-08
 1.33183635e-08
 1.33183635e-08
 1.33183635e-08
 1.33183635e-08
 1.33183635e-08
 1.33183635e-08
 1.33183635e-08
 1.33183635e-08
 1.33183635e-08
 1.33183635e-08
 1.33183635e-08
 1.33183635e-08
 1.33183635e-08
 1.33183635e-08
 1.33183635e-08
 1.33183635e-08
 1.33183635e-08
 1.33183635e-08
 1.33183635e-08
 1.33183635e-08
 1.33183635e-08
 1.33183635e-08
 4.86345450e-05
 4.86345450e-05
 4.86345450e-05
 4.86345450e-05
 4.86345450e-05
 4.86345450e-05
 4.86345450e-05
 4.86345450e-05
 4.86345450e-05
 3.20781151e-05
 3.20781151e-05
 3.20781151e-05
 3.20781151e-05
 3.20781151e-05
 3.20781151e-05
 3.20781151e-05
 3.20781151e-05
 3.20781151e-05
 3.20781151e-05
 3.20781151e-05
 3.20781151e-05
 3.20781151e-05
 3.20781151e-05
 2.08162808e-05
 2.08162808e-05
 2.08162808e-05
 2.08162808e-05
 2.08162808e-05
 2.08162808e-05
 2.08162808e-05
 2.08162808e-05
 2.08162808e-05
 2.08162808e-05
 4.99982329e-06
 4.99982329e-06
 4.99982329e-06
 4.99982329e-06
 4.99982329e-06
 4.99982329e-06
 4.99982329e-06
 4.99982329e-06
 4.99982329e-06
 4.99982329e-06
 4.99982329e-06
 4.99982329e-06
 1.07850523e-05
 1.07850523e-05
 1.07850523e-05
 1.07850523e-05
 1.29469514e-05
 1.29469514e-05
 1.29469514e-05
 1.10972354e-05
 1.10972354e-05
 1.10972354e-05
 1.13150235e-05
 1.13150235e-05
 1.17018934e-05
 1.17018934e-05
 1.17018934e-05