/*--------------------------------*- C++ -*----------------------------------*\
| =========                 |                                                 |
| \\      /  F ield        | OpenFOAM: The Open Source CFD Toolbox           |
|  \\    /   O peration    | Version:  7                                     |
|   \\  /    A nd          | Web:      http://www.OpenFOAM.com               |
|    \\/     M anipulation |                                                 |
\*---------------------------------------------------------------------------*/

FoamFile
{
    version     2.0;
    format      ascii;
    class       dictionary;
    object      Y_HCNO_table;
}

Y_HCNO_table
2
(
101
(
1
(
101
(
 3.50569473e-15
 3.50569473e-15
 3.50569473e-15
 3.50569473e-15
 3.50569473e-15
 3.50569473e-15
 3.50569473e-15
 3.50569473e-15
 3.50569473e-15
 3.50569473e-15
 3.50569473e-15
 3.50569473e-15
 3.50569473e-15
 3.50569473e-15
 3.50569473e-15
 3.50569473e-15
 3.50569473e-15
 3.50569473e-15
 3.50569473e-15
 3.50569473e-15
 3.50569473e-15
 3.50569473e-15
 3.50569473e-15
 3.50569473e-15
 3.50569473e-15
 3.50569473e-15
 3.50569473e-15
 3.50569473e-15
 3.50569473e-15
 3.50569473e-15
 3.50569473e-15
 3.50569473e-15
 3.50569473e-15
 3.50569473e-15
 3.50569473e-15
 3.50569473e-15
 3.50569473e-15
 3.50569473e-15
 3.50569473e-15
 3.50569473e-15
 3.50569473e-15
 3.50569473e-15
 3.50569473e-15
 3.50569473e-15
 3.50569473e-15
 1.16808108e-06
 1.16808108e-06
 6.22774926e-07
 6.22774926e-07
 6.22774926e-07
 6.22774926e-07
 6.22774926e-07
 6.22774926e-07
 6.22774926e-07
 6.22774926e-07
 6.22774926e-07
 6.22774926e-07
 6.22774926e-07
 6.22774926e-07
 6.22774926e-07
 6.22774926e-07
 6.22774926e-07
 6.22774926e-07
 4.10972092e-07
 4.10972092e-07
 4.10972092e-07
 4.10972092e-07
 4.10972092e-07
 4.10972092e-07
 4.10972092e-07
 4.10972092e-07
 4.10972092e-07
 4.10972092e-07
 4.10972092e-07
 4.10972092e-07
 3.30770269e-07
 3.30770269e-07
 3.30770269e-07
 3.30770269e-07
 3.30770269e-07
 3.30770269e-07
 3.30770269e-07
 2.07498392e-07
 2.07498392e-07
 2.07498392e-07
 2.07498392e-07
 2.07498392e-07
 2.07498392e-07
 1.07862523e-07
 1.07862523e-07
 1.07862523e-07
 1.07862523e-07
 1.07862523e-07
 1.07862523e-07
 1.07862523e-07
 1.45644180e-08
 1.45644180e-08
 1.45644180e-08
 1.45644180e-08
 1.45644180e-08
 1.28108723e-10
)
)
1
(
101
(
 2.94975356e-13
 2.94975356e-13
 2.94975356e-13
 2.94975356e-13
 2.94975356e-13
 2.94975356e-13
 2.94975356e-13
 2.94975356e-13
 2.94975356e-13
 2.94975356e-13
 2.94975356e-13
 2.94975356e-13
 2.94975356e-13
 2.94975356e-13
 2.94975356e-13
 2.94975356e-13
 2.94975356e-13
 2.94975356e-13
 2.94975356e-13
 2.94975356e-13
 2.94975356e-13
 2.94975356e-13
 2.94975356e-13
 2.94975356e-13
 2.94975356e-13
 2.94975356e-13
 2.94975356e-13
 2.94975356e-13
 2.94975356e-13
 2.94975356e-13
 2.94975356e-13
 2.94975356e-13
 2.94975356e-13
 2.94975356e-13
 2.94975356e-13
 2.94975356e-13
 2.94975356e-13
 2.94975356e-13
 2.94975356e-13
 2.94975356e-13
 2.94975356e-13
 2.94975356e-13
 2.94975356e-13
 2.94975356e-13
 2.94975356e-13
 1.16808108e-06
 1.16808108e-06
 1.16808108e-06
 6.22774926e-07
 6.22774926e-07
 6.22774926e-07
 6.22774926e-07
 6.22774926e-07
 6.22774926e-07
 6.22774926e-07
 6.22774926e-07
 6.22774926e-07
 6.22774926e-07
 6.22774926e-07
 6.22774926e-07
 6.22774926e-07
 6.22774926e-07
 6.22774926e-07
 6.22774926e-07
 6.22774926e-07
 4.10972092e-07
 4.10972092e-07
 4.10972092e-07
 4.10972092e-07
 4.10972092e-07
 4.10972092e-07
 4.10972092e-07
 4.10972092e-07
 4.10972092e-07
 4.10972092e-07
 4.10972092e-07
 4.10972092e-07
 3.30770269e-07
 3.30770269e-07
 3.30770269e-07
 3.30770269e-07
 3.30770269e-07
 3.30770269e-07
 2.07498392e-07
 2.07498392e-07
 2.07498392e-07
 2.07498392e-07
 2.07498392e-07
 2.07498392e-07
 2.07498392e-07
 1.07862523e-07
 1.07862523e-07
 1.07862523e-07
 1.07862523e-07
 1.07862523e-07
 1.07862523e-07
 5.02876900e-08
 1.45644180e-08
 1.45644180e-08
 1.45644180e-08
 6.24169084e-09
)
)
1
(
101
(
 8.83657538e-13
 8.83657538e-13
 8.83657538e-13
 8.83657538e-13
 8.83657538e-13
 8.83657538e-13
 8.83657538e-13
 8.83657538e-13
 8.83657538e-13
 8.83657538e-13
 8.83657538e-13
 8.83657538e-13
 8.83657538e-13
 8.83657538e-13
 8.83657538e-13
 8.83657538e-13
 8.83657538e-13
 8.83657538e-13
 8.83657538e-13
 8.83657538e-13
 8.83657538e-13
 8.83657538e-13
 8.83657538e-13
 8.83657538e-13
 8.83657538e-13
 8.83657538e-13
 8.83657538e-13
 8.83657538e-13
 8.83657538e-13
 8.83657538e-13
 8.83657538e-13
 8.83657538e-13
 8.83657538e-13
 8.83657538e-13
 8.83657538e-13
 8.83657538e-13
 8.83657538e-13
 8.83657538e-13
 8.83657538e-13
 8.83657538e-13
 8.83657538e-13
 8.83657538e-13
 8.83657538e-13
 8.83657538e-13
 1.16808108e-06
 1.16808108e-06
 1.16808108e-06
 1.16808108e-06
 1.16808108e-06
 1.16808108e-06
 6.22774926e-07
 6.22774926e-07
 6.22774926e-07
 6.22774926e-07
 6.22774926e-07
 6.22774926e-07
 6.22774926e-07
 6.22774926e-07
 6.22774926e-07
 6.22774926e-07
 6.22774926e-07
 6.22774926e-07
 6.22774926e-07
 6.22774926e-07
 6.22774926e-07
 6.22774926e-07
 4.10972092e-07
 4.10972092e-07
 4.10972092e-07
 4.10972092e-07
 4.10972092e-07
 4.10972092e-07
 4.10972092e-07
 4.10972092e-07
 4.10972092e-07
 4.10972092e-07
 4.10972092e-07
 4.10972092e-07
 3.30770269e-07
 3.30770269e-07
 3.30770269e-07
 3.30770269e-07
 3.30770269e-07
 3.30770269e-07
 3.30770269e-07
 2.07498392e-07
 2.07498392e-07
 2.07498392e-07
 2.07498392e-07
 2.07498392e-07
 2.07498392e-07
 1.07862523e-07
 1.07862523e-07
 1.07862523e-07
 1.07862523e-07
 1.07862523e-07
 1.07862523e-07
 5.02876900e-08
 5.02876900e-08
 2.46426939e-08
 2.46426939e-08
)
)
1
(
101
(
 1.19576029e-12
 1.19576029e-12
 1.19576029e-12
 1.19576029e-12
 1.19576029e-12
 1.19576029e-12
 1.19576029e-12
 1.19576029e-12
 1.19576029e-12
 1.19576029e-12
 1.19576029e-12
 1.19576029e-12
 1.19576029e-12
 1.19576029e-12
 1.19576029e-12
 1.19576029e-12
 1.19576029e-12
 1.19576029e-12
 1.19576029e-12
 1.19576029e-12
 1.19576029e-12
 1.19576029e-12
 1.19576029e-12
 1.19576029e-12
 1.19576029e-12
 1.19576029e-12
 1.19576029e-12
 1.19576029e-12
 1.19576029e-12
 1.19576029e-12
 1.19576029e-12
 1.19576029e-12
 1.19576029e-12
 1.19576029e-12
 1.19576029e-12
 1.19576029e-12
 1.19576029e-12
 1.19576029e-12
 1.19576029e-12
 1.19576029e-12
 1.19576029e-12
 1.19576029e-12
 1.19576029e-12
 1.19576029e-12
 1.35194265e-06
 1.16808108e-06
 1.16808108e-06
 1.16808108e-06
 1.16808108e-06
 1.16808108e-06
 1.16808108e-06
 6.22774926e-07
 6.22774926e-07
 6.22774926e-07
 6.22774926e-07
 6.22774926e-07
 6.22774926e-07
 6.22774926e-07
 6.22774926e-07
 6.22774926e-07
 6.22774926e-07
 6.22774926e-07
 6.22774926e-07
 6.22774926e-07
 6.22774926e-07
 6.22774926e-07
 6.22774926e-07
 4.10972092e-07
 4.10972092e-07
 4.10972092e-07
 4.10972092e-07
 4.10972092e-07
 4.10972092e-07
 4.10972092e-07
 4.10972092e-07
 4.10972092e-07
 4.10972092e-07
 4.10972092e-07
 4.10972092e-07
 3.91986375e-07
 3.30770269e-07
 3.30770269e-07
 3.30770269e-07
 3.30770269e-07
 3.30770269e-07
 3.30770269e-07
 2.07498392e-07
 2.07498392e-07
 2.07498392e-07
 2.07498392e-07
 2.07498392e-07
 2.07498392e-07
 2.07498392e-07
 1.07862523e-07
 1.07862523e-07
 1.07862523e-07
 1.07862523e-07
 1.07862523e-07
 5.02876900e-08
 1.71463430e-08
 1.71463430e-08
)
)
1
(
101
(
 2.10535802e-12
 2.10535802e-12
 2.10535802e-12
 2.10535802e-12
 2.10535802e-12
 2.10535802e-12
 2.10535802e-12
 2.10535802e-12
 2.10535802e-12
 2.10535802e-12
 2.10535802e-12
 2.10535802e-12
 2.10535802e-12
 2.10535802e-12
 2.10535802e-12
 2.10535802e-12
 2.10535802e-12
 2.10535802e-12
 2.10535802e-12
 2.10535802e-12
 2.10535802e-12
 2.10535802e-12
 2.10535802e-12
 2.10535802e-12
 2.10535802e-12
 2.10535802e-12
 2.10535802e-12
 2.10535802e-12
 2.10535802e-12
 2.10535802e-12
 2.10535802e-12
 2.10535802e-12
 2.10535802e-12
 2.10535802e-12
 2.10535802e-12
 2.10535802e-12
 2.10535802e-12
 2.10535802e-12
 2.10535802e-12
 2.10535802e-12
 2.10535802e-12
 2.10535802e-12
 2.10535802e-12
 2.10535802e-12
 1.35194265e-06
 1.35194265e-06
 1.35194265e-06
 1.16808108e-06
 1.16808108e-06
 1.16808108e-06
 1.16808108e-06
 1.16808108e-06
 1.16808108e-06
 6.22774926e-07
 6.22774926e-07
 6.22774926e-07
 6.22774926e-07
 6.22774926e-07
 6.22774926e-07
 6.22774926e-07
 6.22774926e-07
 6.22774926e-07
 6.22774926e-07
 6.22774926e-07
 6.22774926e-07
 6.22774926e-07
 6.22774926e-07
 6.22774926e-07
 4.10972092e-07
 4.10972092e-07
 4.10972092e-07
 4.10972092e-07
 4.10972092e-07
 4.10972092e-07
 4.10972092e-07
 4.10972092e-07
 4.10972092e-07
 4.10972092e-07
 4.10972092e-07
 4.10972092e-07
 3.91986375e-07
 3.30770269e-07
 3.30770269e-07
 3.30770269e-07
 3.30770269e-07
 3.30770269e-07
 3.30770269e-07
 3.30770269e-07
 2.07498392e-07
 2.07498392e-07
 2.07498392e-07
 2.07498392e-07
 2.07498392e-07
 2.07498392e-07
 8.81772362e-08
 1.07862523e-07
 1.07862523e-07
 1.07862523e-07
 5.02069253e-08
 5.02069253e-08
 1.71463430e-08
)
)
1
(
101
(
 2.56197743e-12
 2.56197743e-12
 2.56197743e-12
 2.56197743e-12
 2.56197743e-12
 2.56197743e-12
 2.56197743e-12
 2.56197743e-12
 2.56197743e-12
 2.56197743e-12
 2.56197743e-12
 2.56197743e-12
 2.56197743e-12
 2.56197743e-12
 2.56197743e-12
 2.56197743e-12
 2.56197743e-12
 2.56197743e-12
 2.56197743e-12
 2.56197743e-12
 2.56197743e-12
 2.56197743e-12
 2.56197743e-12
 2.56197743e-12
 2.56197743e-12
 2.56197743e-12
 2.56197743e-12
 2.56197743e-12
 2.56197743e-12
 2.56197743e-12
 2.56197743e-12
 2.56197743e-12
 2.56197743e-12
 2.56197743e-12
 2.56197743e-12
 2.56197743e-12
 2.56197743e-12
 2.56197743e-12
 2.56197743e-12
 2.56197743e-12
 2.56197743e-12
 2.56197743e-12
 1.89442718e-11
 1.35194265e-06
 1.35194265e-06
 1.35194265e-06
 1.35194265e-06
 1.35194265e-06
 1.16808108e-06
 1.16808108e-06
 1.16808108e-06
 1.16808108e-06
 1.16808108e-06
 1.16808108e-06
 6.22774926e-07
 6.22774926e-07
 6.22774926e-07
 6.22774926e-07
 6.22774926e-07
 6.22774926e-07
 6.22774926e-07
 6.22774926e-07
 6.22774926e-07
 6.22774926e-07
 6.22774926e-07
 6.22774926e-07
 6.22774926e-07
 6.22774926e-07
 6.22774926e-07
 6.22774926e-07
 4.10972092e-07
 4.10972092e-07
 4.10972092e-07
 4.10972092e-07
 4.10972092e-07
 4.10972092e-07
 4.10972092e-07
 4.10972092e-07
 4.10972092e-07
 4.10972092e-07
 4.10972092e-07
 3.91986375e-07
 3.91986375e-07
 3.30770269e-07
 3.30770269e-07
 3.30770269e-07
 3.30770269e-07
 3.30770269e-07
 3.30770269e-07
 2.07498392e-07
 2.07498392e-07
 2.07498392e-07
 2.07498392e-07
 2.07498392e-07
 2.07498392e-07
 8.81772362e-08
 8.81772362e-08
 8.22055866e-08
 8.22055866e-08
 5.02069253e-08
 5.02069253e-08
)
)
1
(
101
(
 3.47401799e-12
 3.47401799e-12
 3.47401799e-12
 3.47401799e-12
 3.47401799e-12
 3.47401799e-12
 3.47401799e-12
 3.47401799e-12
 3.47401799e-12
 3.47401799e-12
 3.47401799e-12
 3.47401799e-12
 3.47401799e-12
 3.47401799e-12
 3.47401799e-12
 3.47401799e-12
 3.47401799e-12
 3.47401799e-12
 3.47401799e-12
 3.47401799e-12
 3.47401799e-12
 3.47401799e-12
 3.47401799e-12
 3.47401799e-12
 3.47401799e-12
 3.47401799e-12
 3.47401799e-12
 3.47401799e-12
 3.47401799e-12
 3.47401799e-12
 3.47401799e-12
 3.47401799e-12
 3.47401799e-12
 1.89442718e-11
 1.89442718e-11
 1.89442718e-11
 1.89442718e-11
 1.89442718e-11
 1.89442718e-11
 1.89442718e-11
 1.89442718e-11
 1.89442718e-11
 1.89442718e-11
 1.35194265e-06
 1.35194265e-06
 1.35194265e-06
 1.35194265e-06
 1.35194265e-06
 1.35194265e-06
 1.16808108e-06
 1.16808108e-06
 1.16808108e-06
 1.16808108e-06
 1.16808108e-06
 1.16808108e-06
 1.16808108e-06
 6.22774926e-07
 6.22774926e-07
 6.22774926e-07
 6.22774926e-07
 6.22774926e-07
 6.22774926e-07
 6.22774926e-07
 6.22774926e-07
 6.22774926e-07
 6.22774926e-07
 6.22774926e-07
 6.22774926e-07
 6.22774926e-07
 6.22774926e-07
 6.22774926e-07
 4.10972092e-07
 4.10972092e-07
 4.10972092e-07
 4.10972092e-07
 4.10972092e-07
 4.10972092e-07
 4.10972092e-07
 4.10972092e-07
 4.10972092e-07
 4.10972092e-07
 4.10972092e-07
 3.91986375e-07
 3.91986375e-07
 3.30770269e-07
 3.30770269e-07
 3.30770269e-07
 3.30770269e-07
 3.30770269e-07
 3.30770269e-07
 3.30770269e-07
 2.07498392e-07
 2.07498392e-07
 2.07498392e-07
 2.07498392e-07
 2.07498392e-07
 8.81772362e-08
 8.81772362e-08
 8.22055866e-08
 8.22055866e-08
 5.02069253e-08
)
)
1
(
101
(
 4.62929130e-12
 4.62929130e-12
 4.62929130e-12
 4.62929130e-12
 4.62929130e-12
 4.62929130e-12
 4.62929130e-12
 4.62929130e-12
 4.62929130e-12
 4.62929130e-12
 4.62929130e-12
 4.62929130e-12
 4.62929130e-12
 4.62929130e-12
 4.62929130e-12
 4.62929130e-12
 4.62929130e-12
 4.62929130e-12
 4.62929130e-12
 4.62929130e-12
 4.62929130e-12
 4.62929130e-12
 4.62929130e-12
 4.62929130e-12
 4.62929130e-12
 4.62929130e-12
 1.89442718e-11
 1.89442718e-11
 1.89442718e-11
 1.89442718e-11
 1.89442718e-11
 1.89442718e-11
 1.89442718e-11
 1.89442718e-11
 1.89442718e-11
 1.89442718e-11
 1.89442718e-11
 1.89442718e-11
 1.89442718e-11
 1.89442718e-11
 1.89442718e-11
 1.89442718e-11
 1.89442718e-11
 1.35194265e-06
 1.35194265e-06
 1.35194265e-06
 1.35194265e-06
 1.35194265e-06
 1.35194265e-06
 1.35194265e-06
 1.16808108e-06
 1.16808108e-06
 1.16808108e-06
 1.16808108e-06
 1.16808108e-06
 1.16808108e-06
 1.16808108e-06
 6.22774926e-07
 6.22774926e-07
 6.22774926e-07
 6.22774926e-07
 6.22774926e-07
 6.22774926e-07
 6.22774926e-07
 6.22774926e-07
 6.22774926e-07
 6.22774926e-07
 6.22774926e-07
 6.22774926e-07
 6.22774926e-07
 6.22774926e-07
 6.22774926e-07
 4.10972092e-07
 4.10972092e-07
 4.10972092e-07
 4.10972092e-07
 4.10972092e-07
 4.10972092e-07
 4.10972092e-07
 4.10972092e-07
 4.10972092e-07
 4.10972092e-07
 4.10972092e-07
 3.91986375e-07
 3.91986375e-07
 3.91986375e-07
 3.30770269e-07
 3.30770269e-07
 3.30770269e-07
 3.30770269e-07
 3.30770269e-07
 3.30770269e-07
 2.05673485e-07
 2.07498392e-07
 2.07498392e-07
 2.07498392e-07
 1.17736951e-07
 1.17736951e-07
 1.17736951e-07
 8.22055866e-08
 8.22055866e-08
)
)
1
(
101
(
 4.67517623e-12
 4.67517623e-12
 4.67517623e-12
 4.67517623e-12
 4.67517623e-12
 4.67517623e-12
 4.67517623e-12
 4.67517623e-12
 4.67517623e-12
 4.67517623e-12
 4.67517623e-12
 4.67517623e-12
 4.67517623e-12
 4.67517623e-12
 4.67517623e-12
 4.67517623e-12
 4.67517623e-12
 4.67517623e-12
 4.67517623e-12
 1.89442718e-11
 1.89442718e-11
 1.89442718e-11
 1.89442718e-11
 1.89442718e-11
 1.89442718e-11
 1.89442718e-11
 1.89442718e-11
 1.89442718e-11
 1.89442718e-11
 1.89442718e-11
 1.89442718e-11
 1.89442718e-11
 1.89442718e-11
 1.89442718e-11
 1.89442718e-11
 1.89442718e-11
 1.89442718e-11
 1.89442718e-11
 1.89442718e-11
 1.89442718e-11
 1.89442718e-11
 1.89442718e-11
 1.35194265e-06
 1.35194265e-06
 1.35194265e-06
 1.35194265e-06
 1.35194265e-06
 1.35194265e-06
 1.35194265e-06
 1.35194265e-06
 1.35194265e-06
 1.16808108e-06
 1.16808108e-06
 1.16808108e-06
 1.16808108e-06
 1.16808108e-06
 1.16808108e-06
 1.16808108e-06
 1.16808108e-06
 6.22774926e-07
 6.22774926e-07
 6.22774926e-07
 6.22774926e-07
 6.22774926e-07
 6.22774926e-07
 6.22774926e-07
 6.22774926e-07
 6.22774926e-07
 6.22774926e-07
 6.22774926e-07
 6.22774926e-07
 6.22774926e-07
 6.22774926e-07
 4.10972092e-07
 4.10972092e-07
 4.10972092e-07
 4.10972092e-07
 4.10972092e-07
 4.10972092e-07
 4.10972092e-07
 4.10972092e-07
 4.10972092e-07
 4.10972092e-07
 4.10972092e-07
 3.91986375e-07
 3.91986375e-07
 3.91986375e-07
 3.30770269e-07
 3.30770269e-07
 3.30770269e-07
 3.30770269e-07
 3.30770269e-07
 3.30770269e-07
 2.05673485e-07
 2.05673485e-07
 1.21977458e-07
 1.21977458e-07
 1.17736951e-07
 1.17736951e-07
 1.17736951e-07
 1.17736951e-07
)
)
1
(
101
(
 6.55916907e-12
 6.55916907e-12
 6.55916907e-12
 6.55916907e-12
 6.55916907e-12
 6.55916907e-12
 6.55916907e-12
 6.55916907e-12
 6.55916907e-12
 6.55916907e-12
 6.55916907e-12
 6.55916907e-12
 6.55916907e-12
 6.55916907e-12
 1.89442718e-11
 1.89442718e-11
 1.89442718e-11
 1.89442718e-11
 1.89442718e-11
 1.89442718e-11
 1.89442718e-11
 1.89442718e-11
 1.89442718e-11
 1.89442718e-11
 1.89442718e-11
 1.89442718e-11
 1.89442718e-11
 1.89442718e-11
 1.89442718e-11
 1.89442718e-11
 1.89442718e-11
 1.89442718e-11
 1.89442718e-11
 1.89442718e-11
 1.89442718e-11
 1.89442718e-11
 1.89442718e-11
 1.89442718e-11
 1.89442718e-11
 1.89442718e-11
 1.89442718e-11
 1.89442718e-11
 1.35194265e-06
 1.35194265e-06
 1.35194265e-06
 1.35194265e-06
 1.35194265e-06
 1.35194265e-06
 1.35194265e-06
 1.35194265e-06
 1.35194265e-06
 1.35194265e-06
 1.16808108e-06
 1.16808108e-06
 1.16808108e-06
 1.16808108e-06
 1.16808108e-06
 1.16808108e-06
 1.16808108e-06
 1.16808108e-06
 6.22774926e-07
 6.22774926e-07
 6.22774926e-07
 6.22774926e-07
 6.22774926e-07
 6.22774926e-07
 6.22774926e-07
 6.22774926e-07
 6.22774926e-07
 6.22774926e-07
 6.22774926e-07
 6.22774926e-07
 6.22774926e-07
 6.22774926e-07
 6.22774926e-07
 4.10972092e-07
 4.10972092e-07
 4.10972092e-07
 4.10972092e-07
 4.10972092e-07
 4.10972092e-07
 4.10972092e-07
 4.10972092e-07
 4.10972092e-07
 4.10972092e-07
 3.91986375e-07
 3.91986375e-07
 3.91986375e-07
 3.91986375e-07
 3.30770269e-07
 3.30770269e-07
 3.30770269e-07
 3.30770269e-07
 3.30770269e-07
 2.05673485e-07
 2.05673485e-07
 1.21977458e-07
 1.21977458e-07
 1.17736951e-07
 1.17736951e-07
 1.17736951e-07
)
)
1
(
101
(
 6.78005788e-12
 6.78005788e-12
 6.78005788e-12
 6.78005788e-12
 6.78005788e-12
 6.78005788e-12
 6.78005788e-12
 6.78005788e-12
 6.78005788e-12
 1.89442718e-11
 1.89442718e-11
 1.89442718e-11
 1.89442718e-11
 1.89442718e-11
 1.89442718e-11
 1.89442718e-11
 1.89442718e-11
 1.89442718e-11
 1.89442718e-11
 1.89442718e-11
 1.89442718e-11
 1.89442718e-11
 1.89442718e-11
 1.89442718e-11
 1.89442718e-11
 1.89442718e-11
 1.89442718e-11
 1.89442718e-11
 1.89442718e-11
 1.89442718e-11
 1.89442718e-11
 1.89442718e-11
 1.89442718e-11
 1.89442718e-11
 1.89442718e-11
 1.89442718e-11
 1.89442718e-11
 1.89442718e-11
 1.89442718e-11
 1.89442718e-11
 1.89442718e-11
 1.89442718e-11
 1.35194265e-06
 1.35194265e-06
 1.35194265e-06
 1.35194265e-06
 1.35194265e-06
 1.35194265e-06
 1.35194265e-06
 1.35194265e-06
 1.35194265e-06
 1.35194265e-06
 1.35194265e-06
 1.35194265e-06
 1.16808108e-06
 1.16808108e-06
 1.16808108e-06
 1.16808108e-06
 1.16808108e-06
 1.16808108e-06
 1.16808108e-06
 1.16808108e-06
 6.22774926e-07
 6.22774926e-07
 6.22774926e-07
 6.22774926e-07
 6.22774926e-07
 6.22774926e-07
 6.22774926e-07
 6.22774926e-07
 6.22774926e-07
 6.22774926e-07
 6.22774926e-07
 6.22774926e-07
 6.22774926e-07
 6.22774926e-07
 4.10972092e-07
 4.10972092e-07
 4.10972092e-07
 4.10972092e-07
 4.10972092e-07
 4.10972092e-07
 4.10972092e-07
 4.10972092e-07
 4.10972092e-07
 4.10972092e-07
 3.91986375e-07
 3.91986375e-07
 3.91986375e-07
 3.91986375e-07
 3.12363327e-07
 3.30770269e-07
 3.30770269e-07
 3.30770269e-07
 3.30770269e-07
 2.05673485e-07
 2.05673485e-07
 1.21977458e-07
 1.21977458e-07
 1.17736951e-07
 1.17736951e-07
)
)
1
(
101
(
 7.26502276e-12
 7.26502276e-12
 7.26502276e-12
 7.26502276e-12
 7.26502276e-12
 7.26502276e-12
 1.89442718e-11
 1.89442718e-11
 1.89442718e-11
 1.89442718e-11
 1.89442718e-11
 1.89442718e-11
 1.89442718e-11
 1.89442718e-11
 1.89442718e-11
 1.89442718e-11
 1.89442718e-11
 1.89442718e-11
 1.89442718e-11
 1.89442718e-11
 1.89442718e-11
 1.89442718e-11
 1.89442718e-11
 1.89442718e-11
 1.89442718e-11
 1.89442718e-11
 1.89442718e-11
 1.89442718e-11
 1.89442718e-11
 1.89442718e-11
 1.89442718e-11
 1.89442718e-11
 1.89442718e-11
 1.89442718e-11
 1.89442718e-11
 1.89442718e-11
 1.89442718e-11
 1.89442718e-11
 1.89442718e-11
 1.89442718e-11
 1.89442718e-11
 1.89442718e-11
 1.35194265e-06
 1.35194265e-06
 1.35194265e-06
 1.35194265e-06
 1.35194265e-06
 1.35194265e-06
 1.35194265e-06
 1.35194265e-06
 1.35194265e-06
 1.35194265e-06
 1.35194265e-06
 1.35194265e-06
 1.35194265e-06
 1.16808108e-06
 1.16808108e-06
 1.16808108e-06
 1.16808108e-06
 1.16808108e-06
 1.16808108e-06
 1.16808108e-06
 1.16808108e-06
 6.22774926e-07
 6.22774926e-07
 6.22774926e-07
 6.22774926e-07
 6.22774926e-07
 6.22774926e-07
 6.22774926e-07
 6.22774926e-07
 6.22774926e-07
 6.22774926e-07
 6.22774926e-07
 6.22774926e-07
 6.22774926e-07
 6.22774926e-07
 4.10972092e-07
 4.10972092e-07
 4.10972092e-07
 4.10972092e-07
 4.10972092e-07
 4.10972092e-07
 4.10972092e-07
 4.10972092e-07
 4.10972092e-07
 4.10972092e-07
 3.91986375e-07
 3.91986375e-07
 3.91986375e-07
 3.91986375e-07
 3.12363327e-07
 3.12363327e-07
 1.74706532e-07
 1.74706532e-07
 1.74706532e-07
 2.05673485e-07
 2.05673485e-07
 1.21977458e-07
 1.21977458e-07
 1.17736951e-07
)
)
1
(
101
(
 8.89620193e-12
 8.89620193e-12
 8.89620193e-12
 1.89442718e-11
 1.89442718e-11
 1.89442718e-11
 1.89442718e-11
 1.89442718e-11
 1.89442718e-11
 1.89442718e-11
 1.89442718e-11
 1.89442718e-11
 1.89442718e-11
 1.89442718e-11
 1.89442718e-11
 1.89442718e-11
 1.89442718e-11
 1.89442718e-11
 1.89442718e-11
 1.89442718e-11
 1.89442718e-11
 1.89442718e-11
 1.89442718e-11
 1.89442718e-11
 1.89442718e-11
 1.89442718e-11
 1.89442718e-11
 1.89442718e-11
 1.89442718e-11
 1.89442718e-11
 1.89442718e-11
 1.89442718e-11
 1.89442718e-11
 1.89442718e-11
 1.89442718e-11
 1.89442718e-11
 1.89442718e-11
 1.89442718e-11
 1.89442718e-11
 1.89442718e-11
 1.89442718e-11
 1.10155445e-06
 1.35194265e-06
 1.35194265e-06
 1.35194265e-06
 1.35194265e-06
 1.35194265e-06
 1.35194265e-06
 1.35194265e-06
 1.35194265e-06
 1.35194265e-06
 1.35194265e-06
 1.35194265e-06
 1.35194265e-06
 1.35194265e-06
 1.35194265e-06
 1.16808108e-06
 1.16808108e-06
 1.16808108e-06
 1.16808108e-06
 1.16808108e-06
 1.16808108e-06
 1.16808108e-06
 1.16808108e-06
 1.16808108e-06
 6.22774926e-07
 6.22774926e-07
 6.22774926e-07
 6.22774926e-07
 6.22774926e-07
 6.22774926e-07
 6.22774926e-07
 6.22774926e-07
 6.22774926e-07
 6.22774926e-07
 6.22774926e-07
 6.22774926e-07
 6.22774926e-07
 4.10972092e-07
 4.10972092e-07
 4.10972092e-07
 4.10972092e-07
 4.10972092e-07
 4.10972092e-07
 4.10972092e-07
 4.10972092e-07
 4.10972092e-07
 4.10972092e-07
 3.91986375e-07
 3.91986375e-07
 3.91986375e-07
 3.91986375e-07
 3.12363327e-07
 3.12363327e-07
 1.74706532e-07
 1.74706532e-07
 1.74706532e-07
 1.74706532e-07
 2.05673485e-07
 1.21977458e-07
 1.21977458e-07
)
)
1
(
101
(
 5.96452654e-12
 5.96452654e-12
 1.89442718e-11
 1.89442718e-11
 1.89442718e-11
 1.89442718e-11
 1.89442718e-11
 1.89442718e-11
 1.89442718e-11
 1.89442718e-11
 1.89442718e-11
 1.89442718e-11
 1.89442718e-11
 1.89442718e-11
 1.89442718e-11
 1.89442718e-11
 1.89442718e-11
 1.89442718e-11
 1.89442718e-11
 1.89442718e-11
 1.89442718e-11
 1.89442718e-11
 1.89442718e-11
 1.89442718e-11
 1.89442718e-11
 1.89442718e-11
 1.89442718e-11
 1.89442718e-11
 1.89442718e-11
 1.89442718e-11
 1.89442718e-11
 1.89442718e-11
 1.89442718e-11
 1.89442718e-11
 1.89442718e-11
 1.89442718e-11
 1.89442718e-11
 1.89442718e-11
 1.89442718e-11
 1.89442718e-11
 1.89442718e-11
 1.10155445e-06
 1.10155445e-06
 1.35194265e-06
 1.35194265e-06
 1.35194265e-06
 1.35194265e-06
 1.35194265e-06
 1.35194265e-06
 1.35194265e-06
 1.35194265e-06
 1.35194265e-06
 1.35194265e-06
 1.35194265e-06
 1.35194265e-06
 1.35194265e-06
 1.35194265e-06
 1.16808108e-06
 1.16808108e-06
 1.16808108e-06
 1.16808108e-06
 1.16808108e-06
 1.16808108e-06
 1.16808108e-06
 1.16808108e-06
 1.16808108e-06
 6.22774926e-07
 6.22774926e-07
 6.22774926e-07
 6.22774926e-07
 6.22774926e-07
 6.22774926e-07
 6.22774926e-07
 6.22774926e-07
 6.22774926e-07
 6.22774926e-07
 6.22774926e-07
 6.22774926e-07
 6.22774926e-07
 6.22774926e-07
 4.10972092e-07
 4.10972092e-07
 4.10972092e-07
 4.10972092e-07
 4.10972092e-07
 4.10972092e-07
 4.10972092e-07
 4.10972092e-07
 3.80619351e-07
 3.91986375e-07
 3.91986375e-07
 3.91986375e-07
 6.11922097e-08
 6.11922097e-08
 6.11922097e-08
 1.74706532e-07
 1.74706532e-07
 1.74706532e-07
 1.74706532e-07
 1.74706532e-07
 1.21977458e-07
)
)
1
(
101
(
 3.38091759e-14
 1.89442718e-11
 1.89442718e-11
 1.89442718e-11
 1.89442718e-11
 1.89442718e-11
 1.89442718e-11
 1.89442718e-11
 1.89442718e-11
 1.89442718e-11
 1.89442718e-11
 1.89442718e-11
 1.89442718e-11
 1.89442718e-11
 1.89442718e-11
 1.89442718e-11
 1.89442718e-11
 1.89442718e-11
 1.89442718e-11
 1.89442718e-11
 1.89442718e-11
 1.89442718e-11
 1.89442718e-11
 1.89442718e-11
 1.89442718e-11
 1.89442718e-11
 1.89442718e-11
 1.89442718e-11
 1.89442718e-11
 1.89442718e-11
 1.89442718e-11
 1.89442718e-11
 1.89442718e-11
 1.89442718e-11
 1.89442718e-11
 1.89442718e-11
 1.89442718e-11
 1.89442718e-11
 1.89442718e-11
 1.89442718e-11
 1.10155445e-06
 1.10155445e-06
 1.10155445e-06
 1.10155445e-06
 1.35194265e-06
 1.35194265e-06
 1.35194265e-06
 1.35194265e-06
 1.35194265e-06
 1.35194265e-06
 1.35194265e-06
 1.35194265e-06
 1.35194265e-06
 1.35194265e-06
 1.35194265e-06
 1.35194265e-06
 1.35194265e-06
 1.35194265e-06
 1.16808108e-06
 1.16808108e-06
 1.16808108e-06
 1.16808108e-06
 1.16808108e-06
 1.16808108e-06
 1.16808108e-06
 1.16808108e-06
 1.16808108e-06
 1.16808108e-06
 6.22774926e-07
 6.22774926e-07
 6.22774926e-07
 6.22774926e-07
 6.22774926e-07
 6.22774926e-07
 6.22774926e-07
 6.22774926e-07
 6.22774926e-07
 6.22774926e-07
 6.22774926e-07
 6.22774926e-07
 6.22774926e-07
 7.53253206e-07
 4.10972092e-07
 4.10972092e-07
 4.10972092e-07
 4.10972092e-07
 4.10972092e-07
 4.10972092e-07
 4.10972092e-07
 3.80619351e-07
 3.80619351e-07
 2.73705217e-07
 2.73705217e-07
 6.11922097e-08
 6.11922097e-08
 6.11922097e-08
 6.11922097e-08
 1.74706532e-07
 1.74706532e-07
 1.74706532e-07
 1.74706532e-07
)
)
1
(
101
(
 3.38091759e-14
 1.09565506e-11
 1.09565506e-11
 1.09565506e-11
 1.09565506e-11
 1.09565506e-11
 1.09565506e-11
 1.09565506e-11
 1.09565506e-11
 1.09565506e-11
 1.09565506e-11
 1.09565506e-11
 1.09565506e-11
 1.09565506e-11
 1.09565506e-11
 1.09565506e-11
 1.09565506e-11
 1.09565506e-11
 1.09565506e-11
 1.09565506e-11
 1.09565506e-11
 1.09565506e-11
 1.09565506e-11
 1.09565506e-11
 1.09565506e-11
 1.09565506e-11
 1.09565506e-11
 1.09565506e-11
 1.09565506e-11
 1.09565506e-11
 1.09565506e-11
 1.09565506e-11
 1.09565506e-11
 1.09565506e-11
 1.09565506e-11
 1.09565506e-11
 1.09565506e-11
 1.09565506e-11
 1.09565506e-11
 1.09565506e-11
 1.10155445e-06
 1.10155445e-06
 1.10155445e-06
 1.10155445e-06
 1.10155445e-06
 1.35194265e-06
 1.35194265e-06
 1.35194265e-06
 1.35194265e-06
 1.35194265e-06
 1.35194265e-06
 1.35194265e-06
 1.35194265e-06
 1.35194265e-06
 1.35194265e-06
 1.35194265e-06
 1.35194265e-06
 1.35194265e-06
 1.35194265e-06
 1.16808108e-06
 1.16808108e-06
 1.16808108e-06
 1.16808108e-06
 1.16808108e-06
 1.16808108e-06
 1.16808108e-06
 1.16808108e-06
 1.16808108e-06
 1.16808108e-06
 6.22774926e-07
 6.22774926e-07
 6.22774926e-07
 6.22774926e-07
 6.22774926e-07
 6.22774926e-07
 6.22774926e-07
 6.22774926e-07
 6.22774926e-07
 6.22774926e-07
 6.22774926e-07
 6.22774926e-07
 6.22774926e-07
 7.53253206e-07
 7.53253206e-07
 4.10972092e-07
 4.10972092e-07
 4.10972092e-07
 4.10972092e-07
 4.10972092e-07
 3.80619351e-07
 3.80619351e-07
 3.80619351e-07
 2.73705217e-07
 2.73705217e-07
 6.11922097e-08
 6.11922097e-08
 6.11922097e-08
 6.11922097e-08
 6.11922097e-08
 1.74706532e-07
 1.74706532e-07
)
)
1
(
101
(
 1.39427188e-11
 1.39427188e-11
 1.39427188e-11
 1.39427188e-11
 1.39427188e-11
 1.39427188e-11
 1.39427188e-11
 1.39427188e-11
 1.39427188e-11
 1.39427188e-11
 1.39427188e-11
 1.39427188e-11
 1.39427188e-11
 1.39427188e-11
 1.39427188e-11
 1.39427188e-11
 1.39427188e-11
 1.39427188e-11
 1.39427188e-11
 1.39427188e-11
 1.39427188e-11
 1.39427188e-11
 1.39427188e-11
 1.39427188e-11
 1.39427188e-11
 1.39427188e-11
 1.39427188e-11
 1.39427188e-11
 1.39427188e-11
 1.39427188e-11
 1.39427188e-11
 1.39427188e-11
 1.39427188e-11
 1.39427188e-11
 1.39427188e-11
 1.39427188e-11
 1.39427188e-11
 1.39427188e-11
 1.39427188e-11
 1.39427188e-11
 1.10155445e-06
 1.10155445e-06
 1.10155445e-06
 1.10155445e-06
 1.10155445e-06
 1.10155445e-06
 1.35194265e-06
 1.35194265e-06
 1.35194265e-06
 1.35194265e-06
 1.35194265e-06
 1.35194265e-06
 1.35194265e-06
 1.35194265e-06
 1.35194265e-06
 1.35194265e-06
 1.35194265e-06
 1.35194265e-06
 1.35194265e-06
 1.35194265e-06
 1.35194265e-06
 1.16808108e-06
 1.16808108e-06
 1.16808108e-06
 1.16808108e-06
 1.16808108e-06
 1.16808108e-06
 1.16808108e-06
 1.16808108e-06
 1.16808108e-06
 1.16808108e-06
 6.22774926e-07
 6.22774926e-07
 6.22774926e-07
 6.22774926e-07
 6.22774926e-07
 6.22774926e-07
 6.22774926e-07
 6.22774926e-07
 6.22774926e-07
 6.22774926e-07
 6.22774926e-07
 6.22774926e-07
 7.53253206e-07
 7.53253206e-07
 7.53253206e-07
 4.10972092e-07
 4.10972092e-07
 4.10972092e-07
 4.10972092e-07
 3.80619351e-07
 3.80619351e-07
 3.80619351e-07
 2.73705217e-07
 2.73705217e-07
 6.11922097e-08
 6.11922097e-08
 6.11922097e-08
 6.11922097e-08
 6.11922097e-08
 6.11922097e-08
)
)
1
(
101
(
 1.61767165e-11
 1.61767165e-11
 1.61767165e-11
 1.61767165e-11
 1.61767165e-11
 1.61767165e-11
 1.61767165e-11
 1.61767165e-11
 1.61767165e-11
 1.61767165e-11
 1.61767165e-11
 1.61767165e-11
 1.61767165e-11
 1.61767165e-11
 1.61767165e-11
 1.61767165e-11
 1.61767165e-11
 1.61767165e-11
 1.61767165e-11
 1.61767165e-11
 1.61767165e-11
 1.61767165e-11
 1.61767165e-11
 1.61767165e-11
 1.61767165e-11
 1.61767165e-11
 1.61767165e-11
 1.61767165e-11
 1.61767165e-11
 1.61767165e-11
 1.61767165e-11
 1.61767165e-11
 1.61767165e-11
 1.61767165e-11
 1.61767165e-11
 1.61767165e-11
 1.61767165e-11
 1.61767165e-11
 1.61767165e-11
 1.10155445e-06
 1.10155445e-06
 1.10155445e-06
 1.10155445e-06
 1.10155445e-06
 1.10155445e-06
 1.10155445e-06
 1.10155445e-06
 1.10155445e-06
 1.35194265e-06
 1.35194265e-06
 1.35194265e-06
 1.35194265e-06
 1.35194265e-06
 1.35194265e-06
 1.35194265e-06
 1.35194265e-06
 1.35194265e-06
 1.35194265e-06
 1.35194265e-06
 1.35194265e-06
 1.35194265e-06
 1.35194265e-06
 1.16808108e-06
 1.16808108e-06
 1.16808108e-06
 1.16808108e-06
 1.16808108e-06
 1.16808108e-06
 1.16808108e-06
 1.16808108e-06
 1.16808108e-06
 1.16808108e-06
 6.22774926e-07
 6.22774926e-07
 6.22774926e-07
 6.22774926e-07
 6.22774926e-07
 6.22774926e-07
 6.22774926e-07
 6.22774926e-07
 6.22774926e-07
 6.22774926e-07
 6.22774926e-07
 6.22774926e-07
 7.53253206e-07
 7.53253206e-07
 7.53253206e-07
 7.53253206e-07
 4.81027148e-07
 4.81027148e-07
 4.81027148e-07
 3.80619351e-07
 3.80619351e-07
 3.80619351e-07
 2.73705217e-07
 2.73705217e-07
 6.11922097e-08
 6.11922097e-08
 6.11922097e-08