/*--------------------------------*- C++ -*----------------------------------*\
| =========                 |                                                 |
| \\      /  F ield        | OpenFOAM: The Open Source CFD Toolbox           |
|  \\    /   O peration    | Version:  7                                     |
|   \\  /    A nd          | Web:      http://www.OpenFOAM.com               |
|    \\/     M anipulation |                                                 |
\*---------------------------------------------------------------------------*/

FoamFile
{
    version     2.0;
    format      ascii;
    class       dictionary;
    object      Y_HCCOH_table;
}

Y_HCCOH_table
2
(
101
(
1
(
101
(
 2.02335000e-18
 2.02335000e-18
 2.02335000e-18
 2.02335000e-18
 2.02335000e-18
 2.02335000e-18
 2.02335000e-18
 2.02335000e-18
 2.02335000e-18
 2.02335000e-18
 2.02335000e-18
 2.02335000e-18
 2.02335000e-18
 2.02335000e-18
 2.02335000e-18
 2.02335000e-18
 2.02335000e-18
 2.02335000e-18
 2.02335000e-18
 2.02335000e-18
 2.02335000e-18
 2.02335000e-18
 2.02335000e-18
 2.02335000e-18
 2.02335000e-18
 2.02335000e-18
 2.02335000e-18
 2.02335000e-18
 2.02335000e-18
 2.02335000e-18
 2.02335000e-18
 2.02335000e-18
 2.02335000e-18
 2.02335000e-18
 2.02335000e-18
 2.02335000e-18
 2.02335000e-18
 2.02335000e-18
 2.02335000e-18
 2.02335000e-18
 2.02335000e-18
 2.02335000e-18
 2.02335000e-18
 2.02335000e-18
 2.02335000e-18
 1.99725030e-06
 1.99725030e-06
 1.01449611e-06
 1.01449611e-06
 1.01449611e-06
 1.01449611e-06
 1.01449611e-06
 1.01449611e-06
 1.01449611e-06
 1.01449611e-06
 1.01449611e-06
 1.01449611e-06
 1.01449611e-06
 1.01449611e-06
 1.01449611e-06
 1.01449611e-06
 1.01449611e-06
 1.01449611e-06
 6.78206883e-07
 6.78206883e-07
 6.78206883e-07
 6.78206883e-07
 6.78206883e-07
 6.78206883e-07
 6.78206883e-07
 6.78206883e-07
 6.78206883e-07
 6.78206883e-07
 6.78206883e-07
 6.78206883e-07
 4.91283451e-07
 4.91283451e-07
 4.91283451e-07
 4.91283451e-07
 4.91283451e-07
 4.91283451e-07
 4.91283451e-07
 2.88910777e-07
 2.88910777e-07
 2.88910777e-07
 2.88910777e-07
 2.88910777e-07
 2.88910777e-07
 1.38097804e-07
 1.38097804e-07
 1.38097804e-07
 1.38097804e-07
 1.38097804e-07
 1.38097804e-07
 1.38097804e-07
 1.84698458e-08
 1.84698458e-08
 1.84698458e-08
 1.84698458e-08
 1.84698458e-08
 1.30625116e-10
)
)
1
(
101
(
 2.34662156e-16
 2.34662156e-16
 2.34662156e-16
 2.34662156e-16
 2.34662156e-16
 2.34662156e-16
 2.34662156e-16
 2.34662156e-16
 2.34662156e-16
 2.34662156e-16
 2.34662156e-16
 2.34662156e-16
 2.34662156e-16
 2.34662156e-16
 2.34662156e-16
 2.34662156e-16
 2.34662156e-16
 2.34662156e-16
 2.34662156e-16
 2.34662156e-16
 2.34662156e-16
 2.34662156e-16
 2.34662156e-16
 2.34662156e-16
 2.34662156e-16
 2.34662156e-16
 2.34662156e-16
 2.34662156e-16
 2.34662156e-16
 2.34662156e-16
 2.34662156e-16
 2.34662156e-16
 2.34662156e-16
 2.34662156e-16
 2.34662156e-16
 2.34662156e-16
 2.34662156e-16
 2.34662156e-16
 2.34662156e-16
 2.34662156e-16
 2.34662156e-16
 2.34662156e-16
 2.34662156e-16
 2.34662156e-16
 2.34662156e-16
 1.99725030e-06
 1.99725030e-06
 1.99725030e-06
 1.01449611e-06
 1.01449611e-06
 1.01449611e-06
 1.01449611e-06
 1.01449611e-06
 1.01449611e-06
 1.01449611e-06
 1.01449611e-06
 1.01449611e-06
 1.01449611e-06
 1.01449611e-06
 1.01449611e-06
 1.01449611e-06
 1.01449611e-06
 1.01449611e-06
 1.01449611e-06
 1.01449611e-06
 6.78206883e-07
 6.78206883e-07
 6.78206883e-07
 6.78206883e-07
 6.78206883e-07
 6.78206883e-07
 6.78206883e-07
 6.78206883e-07
 6.78206883e-07
 6.78206883e-07
 6.78206883e-07
 6.78206883e-07
 4.91283451e-07
 4.91283451e-07
 4.91283451e-07
 4.91283451e-07
 4.91283451e-07
 4.91283451e-07
 2.88910777e-07
 2.88910777e-07
 2.88910777e-07
 2.88910777e-07
 2.88910777e-07
 2.88910777e-07
 2.88910777e-07
 1.38097804e-07
 1.38097804e-07
 1.38097804e-07
 1.38097804e-07
 1.38097804e-07
 1.38097804e-07
 7.24488377e-08
 1.84698458e-08
 1.84698458e-08
 1.84698458e-08
 8.10305968e-09
)
)
1
(
101
(
 7.95787038e-16
 7.95787038e-16
 7.95787038e-16
 7.95787038e-16
 7.95787038e-16
 7.95787038e-16
 7.95787038e-16
 7.95787038e-16
 7.95787038e-16
 7.95787038e-16
 7.95787038e-16
 7.95787038e-16
 7.95787038e-16
 7.95787038e-16
 7.95787038e-16
 7.95787038e-16
 7.95787038e-16
 7.95787038e-16
 7.95787038e-16
 7.95787038e-16
 7.95787038e-16
 7.95787038e-16
 7.95787038e-16
 7.95787038e-16
 7.95787038e-16
 7.95787038e-16
 7.95787038e-16
 7.95787038e-16
 7.95787038e-16
 7.95787038e-16
 7.95787038e-16
 7.95787038e-16
 7.95787038e-16
 7.95787038e-16
 7.95787038e-16
 7.95787038e-16
 7.95787038e-16
 7.95787038e-16
 7.95787038e-16
 7.95787038e-16
 7.95787038e-16
 7.95787038e-16
 7.95787038e-16
 7.95787038e-16
 1.99725030e-06
 1.99725030e-06
 1.99725030e-06
 1.99725030e-06
 1.99725030e-06
 1.99725030e-06
 1.01449611e-06
 1.01449611e-06
 1.01449611e-06
 1.01449611e-06
 1.01449611e-06
 1.01449611e-06
 1.01449611e-06
 1.01449611e-06
 1.01449611e-06
 1.01449611e-06
 1.01449611e-06
 1.01449611e-06
 1.01449611e-06
 1.01449611e-06
 1.01449611e-06
 1.01449611e-06
 6.78206883e-07
 6.78206883e-07
 6.78206883e-07
 6.78206883e-07
 6.78206883e-07
 6.78206883e-07
 6.78206883e-07
 6.78206883e-07
 6.78206883e-07
 6.78206883e-07
 6.78206883e-07
 6.78206883e-07
 4.91283451e-07
 4.91283451e-07
 4.91283451e-07
 4.91283451e-07
 4.91283451e-07
 4.91283451e-07
 4.91283451e-07
 2.88910777e-07
 2.88910777e-07
 2.88910777e-07
 2.88910777e-07
 2.88910777e-07
 2.88910777e-07
 1.38097804e-07
 1.38097804e-07
 1.38097804e-07
 1.38097804e-07
 1.38097804e-07
 1.38097804e-07
 7.24488377e-08
 7.24488377e-08
 3.54262347e-08
 3.54262347e-08
)
)
1
(
101
(
 1.09019852e-15
 1.09019852e-15
 1.09019852e-15
 1.09019852e-15
 1.09019852e-15
 1.09019852e-15
 1.09019852e-15
 1.09019852e-15
 1.09019852e-15
 1.09019852e-15
 1.09019852e-15
 1.09019852e-15
 1.09019852e-15
 1.09019852e-15
 1.09019852e-15
 1.09019852e-15
 1.09019852e-15
 1.09019852e-15
 1.09019852e-15
 1.09019852e-15
 1.09019852e-15
 1.09019852e-15
 1.09019852e-15
 1.09019852e-15
 1.09019852e-15
 1.09019852e-15
 1.09019852e-15
 1.09019852e-15
 1.09019852e-15
 1.09019852e-15
 1.09019852e-15
 1.09019852e-15
 1.09019852e-15
 1.09019852e-15
 1.09019852e-15
 1.09019852e-15
 1.09019852e-15
 1.09019852e-15
 1.09019852e-15
 1.09019852e-15
 1.09019852e-15
 1.09019852e-15
 1.09019852e-15
 1.09019852e-15
 2.74427918e-06
 1.99725030e-06
 1.99725030e-06
 1.99725030e-06
 1.99725030e-06
 1.99725030e-06
 1.99725030e-06
 1.01449611e-06
 1.01449611e-06
 1.01449611e-06
 1.01449611e-06
 1.01449611e-06
 1.01449611e-06
 1.01449611e-06
 1.01449611e-06
 1.01449611e-06
 1.01449611e-06
 1.01449611e-06
 1.01449611e-06
 1.01449611e-06
 1.01449611e-06
 1.01449611e-06
 1.01449611e-06
 6.78206883e-07
 6.78206883e-07
 6.78206883e-07
 6.78206883e-07
 6.78206883e-07
 6.78206883e-07
 6.78206883e-07
 6.78206883e-07
 6.78206883e-07
 6.78206883e-07
 6.78206883e-07
 6.78206883e-07
 6.57887494e-07
 4.91283451e-07
 4.91283451e-07
 4.91283451e-07
 4.91283451e-07
 4.91283451e-07
 4.91283451e-07
 2.88910777e-07
 2.88910777e-07
 2.88910777e-07
 2.88910777e-07
 2.88910777e-07
 2.88910777e-07
 2.88910777e-07
 1.38097804e-07
 1.38097804e-07
 1.38097804e-07
 1.38097804e-07
 1.38097804e-07
 7.24488377e-08
 4.52480003e-08
 4.52480003e-08
)
)
1
(
101
(
 1.88853910e-15
 1.88853910e-15
 1.88853910e-15
 1.88853910e-15
 1.88853910e-15
 1.88853910e-15
 1.88853910e-15
 1.88853910e-15
 1.88853910e-15
 1.88853910e-15
 1.88853910e-15
 1.88853910e-15
 1.88853910e-15
 1.88853910e-15
 1.88853910e-15
 1.88853910e-15
 1.88853910e-15
 1.88853910e-15
 1.88853910e-15
 1.88853910e-15
 1.88853910e-15
 1.88853910e-15
 1.88853910e-15
 1.88853910e-15
 1.88853910e-15
 1.88853910e-15
 1.88853910e-15
 1.88853910e-15
 1.88853910e-15
 1.88853910e-15
 1.88853910e-15
 1.88853910e-15
 1.88853910e-15
 1.88853910e-15
 1.88853910e-15
 1.88853910e-15
 1.88853910e-15
 1.88853910e-15
 1.88853910e-15
 1.88853910e-15
 1.88853910e-15
 1.88853910e-15
 1.88853910e-15
 1.88853910e-15
 2.74427918e-06
 2.74427918e-06
 2.74427918e-06
 1.99725030e-06
 1.99725030e-06
 1.99725030e-06
 1.99725030e-06
 1.99725030e-06
 1.99725030e-06
 1.01449611e-06
 1.01449611e-06
 1.01449611e-06
 1.01449611e-06
 1.01449611e-06
 1.01449611e-06
 1.01449611e-06
 1.01449611e-06
 1.01449611e-06
 1.01449611e-06
 1.01449611e-06
 1.01449611e-06
 1.01449611e-06
 1.01449611e-06
 1.01449611e-06
 6.78206883e-07
 6.78206883e-07
 6.78206883e-07
 6.78206883e-07
 6.78206883e-07
 6.78206883e-07
 6.78206883e-07
 6.78206883e-07
 6.78206883e-07
 6.78206883e-07
 6.78206883e-07
 6.78206883e-07
 6.57887494e-07
 4.91283451e-07
 4.91283451e-07
 4.91283451e-07
 4.91283451e-07
 4.91283451e-07
 4.91283451e-07
 4.91283451e-07
 2.88910777e-07
 2.88910777e-07
 2.88910777e-07
 2.88910777e-07
 2.88910777e-07
 2.88910777e-07
 1.77918423e-07
 1.38097804e-07
 1.38097804e-07
 1.38097804e-07
 9.42399325e-08
 9.42399325e-08
 4.52480003e-08
)
)
1
(
101
(
 2.06877999e-15
 2.06877999e-15
 2.06877999e-15
 2.06877999e-15
 2.06877999e-15
 2.06877999e-15
 2.06877999e-15
 2.06877999e-15
 2.06877999e-15
 2.06877999e-15
 2.06877999e-15
 2.06877999e-15
 2.06877999e-15
 2.06877999e-15
 2.06877999e-15
 2.06877999e-15
 2.06877999e-15
 2.06877999e-15
 2.06877999e-15
 2.06877999e-15
 2.06877999e-15
 2.06877999e-15
 2.06877999e-15
 2.06877999e-15
 2.06877999e-15
 2.06877999e-15
 2.06877999e-15
 2.06877999e-15
 2.06877999e-15
 2.06877999e-15
 2.06877999e-15
 2.06877999e-15
 2.06877999e-15
 2.06877999e-15
 2.06877999e-15
 2.06877999e-15
 2.06877999e-15
 2.06877999e-15
 2.06877999e-15
 2.06877999e-15
 2.06877999e-15
 2.06877999e-15
 1.00599213e-14
 2.74427918e-06
 2.74427918e-06
 2.74427918e-06
 2.74427918e-06
 2.74427918e-06
 1.99725030e-06
 1.99725030e-06
 1.99725030e-06
 1.99725030e-06
 1.99725030e-06
 1.99725030e-06
 1.01449611e-06
 1.01449611e-06
 1.01449611e-06
 1.01449611e-06
 1.01449611e-06
 1.01449611e-06
 1.01449611e-06
 1.01449611e-06
 1.01449611e-06
 1.01449611e-06
 1.01449611e-06
 1.01449611e-06
 1.01449611e-06
 1.01449611e-06
 1.01449611e-06
 1.01449611e-06
 6.78206883e-07
 6.78206883e-07
 6.78206883e-07
 6.78206883e-07
 6.78206883e-07
 6.78206883e-07
 6.78206883e-07
 6.78206883e-07
 6.78206883e-07
 6.78206883e-07
 6.78206883e-07
 6.57887494e-07
 6.57887494e-07
 4.91283451e-07
 4.91283451e-07
 4.91283451e-07
 4.91283451e-07
 4.91283451e-07
 4.91283451e-07
 2.88910777e-07
 2.88910777e-07
 2.88910777e-07
 2.88910777e-07
 2.88910777e-07
 2.88910777e-07
 1.77918423e-07
 1.77918423e-07
 1.37978412e-07
 1.37978412e-07
 9.42399325e-08
 9.42399325e-08
)
)
1
(
101
(
 3.84764028e-15
 3.84764028e-15
 3.84764028e-15
 3.84764028e-15
 3.84764028e-15
 3.84764028e-15
 3.84764028e-15
 3.84764028e-15
 3.84764028e-15
 3.84764028e-15
 3.84764028e-15
 3.84764028e-15
 3.84764028e-15
 3.84764028e-15
 3.84764028e-15
 3.84764028e-15
 3.84764028e-15
 3.84764028e-15
 3.84764028e-15
 3.84764028e-15
 3.84764028e-15
 3.84764028e-15
 3.84764028e-15
 3.84764028e-15
 3.84764028e-15
 3.84764028e-15
 3.84764028e-15
 3.84764028e-15
 3.84764028e-15
 3.84764028e-15
 3.84764028e-15
 3.84764028e-15
 3.84764028e-15
 1.00599213e-14
 1.00599213e-14
 1.00599213e-14
 1.00599213e-14
 1.00599213e-14
 1.00599213e-14
 1.00599213e-14
 1.00599213e-14
 1.00599213e-14
 1.00599213e-14
 2.74427918e-06
 2.74427918e-06
 2.74427918e-06
 2.74427918e-06
 2.74427918e-06
 2.74427918e-06
 1.99725030e-06
 1.99725030e-06
 1.99725030e-06
 1.99725030e-06
 1.99725030e-06
 1.99725030e-06
 1.99725030e-06
 1.01449611e-06
 1.01449611e-06
 1.01449611e-06
 1.01449611e-06
 1.01449611e-06
 1.01449611e-06
 1.01449611e-06
 1.01449611e-06
 1.01449611e-06
 1.01449611e-06
 1.01449611e-06
 1.01449611e-06
 1.01449611e-06
 1.01449611e-06
 1.01449611e-06
 6.78206883e-07
 6.78206883e-07
 6.78206883e-07
 6.78206883e-07
 6.78206883e-07
 6.78206883e-07
 6.78206883e-07
 6.78206883e-07
 6.78206883e-07
 6.78206883e-07
 6.78206883e-07
 6.57887494e-07
 6.57887494e-07
 4.91283451e-07
 4.91283451e-07
 4.91283451e-07
 4.91283451e-07
 4.91283451e-07
 4.91283451e-07
 4.91283451e-07
 2.88910777e-07
 2.88910777e-07
 2.88910777e-07
 2.88910777e-07
 2.88910777e-07
 1.77918423e-07
 1.77918423e-07
 1.37978412e-07
 1.37978412e-07
 9.42399325e-08
)
)
1
(
101
(
 3.83129821e-15
 3.83129821e-15
 3.83129821e-15
 3.83129821e-15
 3.83129821e-15
 3.83129821e-15
 3.83129821e-15
 3.83129821e-15
 3.83129821e-15
 3.83129821e-15
 3.83129821e-15
 3.83129821e-15
 3.83129821e-15
 3.83129821e-15
 3.83129821e-15
 3.83129821e-15
 3.83129821e-15
 3.83129821e-15
 3.83129821e-15
 3.83129821e-15
 3.83129821e-15
 3.83129821e-15
 3.83129821e-15
 3.83129821e-15
 3.83129821e-15
 3.83129821e-15
 1.00599213e-14
 1.00599213e-14
 1.00599213e-14
 1.00599213e-14
 1.00599213e-14
 1.00599213e-14
 1.00599213e-14
 1.00599213e-14
 1.00599213e-14
 1.00599213e-14
 1.00599213e-14
 1.00599213e-14
 1.00599213e-14
 1.00599213e-14
 1.00599213e-14
 1.00599213e-14
 1.00599213e-14
 2.74427918e-06
 2.74427918e-06
 2.74427918e-06
 2.74427918e-06
 2.74427918e-06
 2.74427918e-06
 2.74427918e-06
 1.99725030e-06
 1.99725030e-06
 1.99725030e-06
 1.99725030e-06
 1.99725030e-06
 1.99725030e-06
 1.99725030e-06
 1.01449611e-06
 1.01449611e-06
 1.01449611e-06
 1.01449611e-06
 1.01449611e-06
 1.01449611e-06
 1.01449611e-06
 1.01449611e-06
 1.01449611e-06
 1.01449611e-06
 1.01449611e-06
 1.01449611e-06
 1.01449611e-06
 1.01449611e-06
 1.01449611e-06
 6.78206883e-07
 6.78206883e-07
 6.78206883e-07
 6.78206883e-07
 6.78206883e-07
 6.78206883e-07
 6.78206883e-07
 6.78206883e-07
 6.78206883e-07
 6.78206883e-07
 6.78206883e-07
 6.57887494e-07
 6.57887494e-07
 6.57887494e-07
 4.91283451e-07
 4.91283451e-07
 4.91283451e-07
 4.91283451e-07
 4.91283451e-07
 4.91283451e-07
 3.57229668e-07
 2.88910777e-07
 2.88910777e-07
 2.88910777e-07
 2.08659243e-07
 2.08659243e-07
 2.08659243e-07
 1.37978412e-07
 1.37978412e-07
)
)
1
(
101
(
 4.27126529e-15
 4.27126529e-15
 4.27126529e-15
 4.27126529e-15
 4.27126529e-15
 4.27126529e-15
 4.27126529e-15
 4.27126529e-15
 4.27126529e-15
 4.27126529e-15
 4.27126529e-15
 4.27126529e-15
 4.27126529e-15
 4.27126529e-15
 4.27126529e-15
 4.27126529e-15
 4.27126529e-15
 4.27126529e-15
 4.27126529e-15
 1.00599213e-14
 1.00599213e-14
 1.00599213e-14
 1.00599213e-14
 1.00599213e-14
 1.00599213e-14
 1.00599213e-14
 1.00599213e-14
 1.00599213e-14
 1.00599213e-14
 1.00599213e-14
 1.00599213e-14
 1.00599213e-14
 1.00599213e-14
 1.00599213e-14
 1.00599213e-14
 1.00599213e-14
 1.00599213e-14
 1.00599213e-14
 1.00599213e-14
 1.00599213e-14
 1.00599213e-14
 1.00599213e-14
 2.74427918e-06
 2.74427918e-06
 2.74427918e-06
 2.74427918e-06
 2.74427918e-06
 2.74427918e-06
 2.74427918e-06
 2.74427918e-06
 2.74427918e-06
 1.99725030e-06
 1.99725030e-06
 1.99725030e-06
 1.99725030e-06
 1.99725030e-06
 1.99725030e-06
 1.99725030e-06
 1.99725030e-06
 1.01449611e-06
 1.01449611e-06
 1.01449611e-06
 1.01449611e-06
 1.01449611e-06
 1.01449611e-06
 1.01449611e-06
 1.01449611e-06
 1.01449611e-06
 1.01449611e-06
 1.01449611e-06
 1.01449611e-06
 1.01449611e-06
 1.01449611e-06
 6.78206883e-07
 6.78206883e-07
 6.78206883e-07
 6.78206883e-07
 6.78206883e-07
 6.78206883e-07
 6.78206883e-07
 6.78206883e-07
 6.78206883e-07
 6.78206883e-07
 6.78206883e-07
 6.57887494e-07
 6.57887494e-07
 6.57887494e-07
 4.91283451e-07
 4.91283451e-07
 4.91283451e-07
 4.91283451e-07
 4.91283451e-07
 4.91283451e-07
 3.57229668e-07
 3.57229668e-07
 2.64023108e-07
 2.64023108e-07
 2.08659243e-07
 2.08659243e-07
 2.08659243e-07
 2.08659243e-07
)
)
1
(
101
(
 8.41320455e-15
 8.41320455e-15
 8.41320455e-15
 8.41320455e-15
 8.41320455e-15
 8.41320455e-15
 8.41320455e-15
 8.41320455e-15
 8.41320455e-15
 8.41320455e-15
 8.41320455e-15
 8.41320455e-15
 8.41320455e-15
 8.41320455e-15
 1.00599213e-14
 1.00599213e-14
 1.00599213e-14
 1.00599213e-14
 1.00599213e-14
 1.00599213e-14
 1.00599213e-14
 1.00599213e-14
 1.00599213e-14
 1.00599213e-14
 1.00599213e-14
 1.00599213e-14
 1.00599213e-14
 1.00599213e-14
 1.00599213e-14
 1.00599213e-14
 1.00599213e-14
 1.00599213e-14
 1.00599213e-14
 1.00599213e-14
 1.00599213e-14
 1.00599213e-14
 1.00599213e-14
 1.00599213e-14
 1.00599213e-14
 1.00599213e-14
 1.00599213e-14
 1.00599213e-14
 2.74427918e-06
 2.74427918e-06
 2.74427918e-06
 2.74427918e-06
 2.74427918e-06
 2.74427918e-06
 2.74427918e-06
 2.74427918e-06
 2.74427918e-06
 2.74427918e-06
 1.99725030e-06
 1.99725030e-06
 1.99725030e-06
 1.99725030e-06
 1.99725030e-06
 1.99725030e-06
 1.99725030e-06
 1.99725030e-06
 1.01449611e-06
 1.01449611e-06
 1.01449611e-06
 1.01449611e-06
 1.01449611e-06
 1.01449611e-06
 1.01449611e-06
 1.01449611e-06
 1.01449611e-06
 1.01449611e-06
 1.01449611e-06
 1.01449611e-06
 1.01449611e-06
 1.01449611e-06
 1.01449611e-06
 6.78206883e-07
 6.78206883e-07
 6.78206883e-07
 6.78206883e-07
 6.78206883e-07
 6.78206883e-07
 6.78206883e-07
 6.78206883e-07
 6.78206883e-07
 6.78206883e-07
 6.57887494e-07
 6.57887494e-07
 6.57887494e-07
 6.57887494e-07
 4.91283451e-07
 4.91283451e-07
 4.91283451e-07
 4.91283451e-07
 4.91283451e-07
 3.57229668e-07
 3.57229668e-07
 2.64023108e-07
 2.64023108e-07
 2.08659243e-07
 2.08659243e-07
 2.08659243e-07
)
)
1
(
101
(
 6.77481655e-15
 6.77481655e-15
 6.77481655e-15
 6.77481655e-15
 6.77481655e-15
 6.77481655e-15
 6.77481655e-15
 6.77481655e-15
 6.77481655e-15
 1.00599213e-14
 1.00599213e-14
 1.00599213e-14
 1.00599213e-14
 1.00599213e-14
 1.00599213e-14
 1.00599213e-14
 1.00599213e-14
 1.00599213e-14
 1.00599213e-14
 1.00599213e-14
 1.00599213e-14
 1.00599213e-14
 1.00599213e-14
 1.00599213e-14
 1.00599213e-14
 1.00599213e-14
 1.00599213e-14
 1.00599213e-14
 1.00599213e-14
 1.00599213e-14
 1.00599213e-14
 1.00599213e-14
 1.00599213e-14
 1.00599213e-14
 1.00599213e-14
 1.00599213e-14
 1.00599213e-14
 1.00599213e-14
 1.00599213e-14
 1.00599213e-14
 1.00599213e-14
 1.00599213e-14
 2.74427918e-06
 2.74427918e-06
 2.74427918e-06
 2.74427918e-06
 2.74427918e-06
 2.74427918e-06
 2.74427918e-06
 2.74427918e-06
 2.74427918e-06
 2.74427918e-06
 2.74427918e-06
 2.74427918e-06
 1.99725030e-06
 1.99725030e-06
 1.99725030e-06
 1.99725030e-06
 1.99725030e-06
 1.99725030e-06
 1.99725030e-06
 1.99725030e-06
 1.01449611e-06
 1.01449611e-06
 1.01449611e-06
 1.01449611e-06
 1.01449611e-06
 1.01449611e-06
 1.01449611e-06
 1.01449611e-06
 1.01449611e-06
 1.01449611e-06
 1.01449611e-06
 1.01449611e-06
 1.01449611e-06
 1.01449611e-06
 6.78206883e-07
 6.78206883e-07
 6.78206883e-07
 6.78206883e-07
 6.78206883e-07
 6.78206883e-07
 6.78206883e-07
 6.78206883e-07
 6.78206883e-07
 6.78206883e-07
 6.57887494e-07
 6.57887494e-07
 6.57887494e-07
 6.57887494e-07
 5.69843416e-07
 4.91283451e-07
 4.91283451e-07
 4.91283451e-07
 4.91283451e-07
 3.57229668e-07
 3.57229668e-07
 2.64023108e-07
 2.64023108e-07
 2.08659243e-07
 2.08659243e-07
)
)
1
(
101
(
 7.89237238e-15
 7.89237238e-15
 7.89237238e-15
 7.89237238e-15
 7.89237238e-15
 7.89237238e-15
 1.00599213e-14
 1.00599213e-14
 1.00599213e-14
 1.00599213e-14
 1.00599213e-14
 1.00599213e-14
 1.00599213e-14
 1.00599213e-14
 1.00599213e-14
 1.00599213e-14
 1.00599213e-14
 1.00599213e-14
 1.00599213e-14
 1.00599213e-14
 1.00599213e-14
 1.00599213e-14
 1.00599213e-14
 1.00599213e-14
 1.00599213e-14
 1.00599213e-14
 1.00599213e-14
 1.00599213e-14
 1.00599213e-14
 1.00599213e-14
 1.00599213e-14
 1.00599213e-14
 1.00599213e-14
 1.00599213e-14
 1.00599213e-14
 1.00599213e-14
 1.00599213e-14
 1.00599213e-14
 1.00599213e-14
 1.00599213e-14
 1.00599213e-14
 1.00599213e-14
 2.74427918e-06
 2.74427918e-06
 2.74427918e-06
 2.74427918e-06
 2.74427918e-06
 2.74427918e-06
 2.74427918e-06
 2.74427918e-06
 2.74427918e-06
 2.74427918e-06
 2.74427918e-06
 2.74427918e-06
 2.74427918e-06
 1.99725030e-06
 1.99725030e-06
 1.99725030e-06
 1.99725030e-06
 1.99725030e-06
 1.99725030e-06
 1.99725030e-06
 1.99725030e-06
 1.01449611e-06
 1.01449611e-06
 1.01449611e-06
 1.01449611e-06
 1.01449611e-06
 1.01449611e-06
 1.01449611e-06
 1.01449611e-06
 1.01449611e-06
 1.01449611e-06
 1.01449611e-06
 1.01449611e-06
 1.01449611e-06
 1.01449611e-06
 6.78206883e-07
 6.78206883e-07
 6.78206883e-07
 6.78206883e-07
 6.78206883e-07
 6.78206883e-07
 6.78206883e-07
 6.78206883e-07
 6.78206883e-07
 6.78206883e-07
 6.57887494e-07
 6.57887494e-07
 6.57887494e-07
 6.57887494e-07
 5.69843416e-07
 5.69843416e-07
 3.93348582e-07
 3.93348582e-07
 3.93348582e-07
 3.57229668e-07
 3.57229668e-07
 2.64023108e-07
 2.64023108e-07
 2.08659243e-07
)
)
1
(
101
(
 1.00015964e-14
 1.00015964e-14
 1.00015964e-14
 1.00599213e-14
 1.00599213e-14
 1.00599213e-14
 1.00599213e-14
 1.00599213e-14
 1.00599213e-14
 1.00599213e-14
 1.00599213e-14
 1.00599213e-14
 1.00599213e-14
 1.00599213e-14
 1.00599213e-14
 1.00599213e-14
 1.00599213e-14
 1.00599213e-14
 1.00599213e-14
 1.00599213e-14
 1.00599213e-14
 1.00599213e-14
 1.00599213e-14
 1.00599213e-14
 1.00599213e-14
 1.00599213e-14
 1.00599213e-14
 1.00599213e-14
 1.00599213e-14
 1.00599213e-14
 1.00599213e-14
 1.00599213e-14
 1.00599213e-14
 1.00599213e-14
 1.00599213e-14
 1.00599213e-14
 1.00599213e-14
 1.00599213e-14
 1.00599213e-14
 1.00599213e-14
 1.00599213e-14
 3.25844625e-06
 2.74427918e-06
 2.74427918e-06
 2.74427918e-06
 2.74427918e-06
 2.74427918e-06
 2.74427918e-06
 2.74427918e-06
 2.74427918e-06
 2.74427918e-06
 2.74427918e-06
 2.74427918e-06
 2.74427918e-06
 2.74427918e-06
 2.74427918e-06
 1.99725030e-06
 1.99725030e-06
 1.99725030e-06
 1.99725030e-06
 1.99725030e-06
 1.99725030e-06
 1.99725030e-06
 1.99725030e-06
 1.99725030e-06
 1.01449611e-06
 1.01449611e-06
 1.01449611e-06
 1.01449611e-06
 1.01449611e-06
 1.01449611e-06
 1.01449611e-06
 1.01449611e-06
 1.01449611e-06
 1.01449611e-06
 1.01449611e-06
 1.01449611e-06
 1.01449611e-06
 6.78206883e-07
 6.78206883e-07
 6.78206883e-07
 6.78206883e-07
 6.78206883e-07
 6.78206883e-07
 6.78206883e-07
 6.78206883e-07
 6.78206883e-07
 6.78206883e-07
 6.57887494e-07
 6.57887494e-07
 6.57887494e-07
 6.57887494e-07
 5.69843416e-07
 5.69843416e-07
 3.93348582e-07
 3.93348582e-07
 3.93348582e-07
 3.93348582e-07
 3.57229668e-07
 2.64023108e-07
 2.64023108e-07
)
)
1
(
101
(
 3.06241721e-15
 3.06241721e-15
 1.00599213e-14
 1.00599213e-14
 1.00599213e-14
 1.00599213e-14
 1.00599213e-14
 1.00599213e-14
 1.00599213e-14
 1.00599213e-14
 1.00599213e-14
 1.00599213e-14
 1.00599213e-14
 1.00599213e-14
 1.00599213e-14
 1.00599213e-14
 1.00599213e-14
 1.00599213e-14
 1.00599213e-14
 1.00599213e-14
 1.00599213e-14
 1.00599213e-14
 1.00599213e-14
 1.00599213e-14
 1.00599213e-14
 1.00599213e-14
 1.00599213e-14
 1.00599213e-14
 1.00599213e-14
 1.00599213e-14
 1.00599213e-14
 1.00599213e-14
 1.00599213e-14
 1.00599213e-14
 1.00599213e-14
 1.00599213e-14
 1.00599213e-14
 1.00599213e-14
 1.00599213e-14
 1.00599213e-14
 1.00599213e-14
 3.25844625e-06
 3.25844625e-06
 2.74427918e-06
 2.74427918e-06
 2.74427918e-06
 2.74427918e-06
 2.74427918e-06
 2.74427918e-06
 2.74427918e-06
 2.74427918e-06
 2.74427918e-06
 2.74427918e-06
 2.74427918e-06
 2.74427918e-06
 2.74427918e-06
 2.74427918e-06
 1.99725030e-06
 1.99725030e-06
 1.99725030e-06
 1.99725030e-06
 1.99725030e-06
 1.99725030e-06
 1.99725030e-06
 1.99725030e-06
 1.99725030e-06
 1.01449611e-06
 1.01449611e-06
 1.01449611e-06
 1.01449611e-06
 1.01449611e-06
 1.01449611e-06
 1.01449611e-06
 1.01449611e-06
 1.01449611e-06
 1.01449611e-06
 1.01449611e-06
 1.01449611e-06
 1.01449611e-06
 1.01449611e-06
 6.78206883e-07
 6.78206883e-07
 6.78206883e-07
 6.78206883e-07
 6.78206883e-07
 6.78206883e-07
 6.78206883e-07
 6.78206883e-07
 7.50225629e-07
 6.57887494e-07
 6.57887494e-07
 6.57887494e-07
 3.52489837e-07
 3.52489837e-07
 3.52489837e-07
 3.93348582e-07
 3.93348582e-07
 3.93348582e-07
 3.93348582e-07
 3.93348582e-07
 2.64023108e-07
)
)
1
(
101
(
 8.52740555e-22
 1.00599213e-14
 1.00599213e-14
 1.00599213e-14
 1.00599213e-14
 1.00599213e-14
 1.00599213e-14
 1.00599213e-14
 1.00599213e-14
 1.00599213e-14
 1.00599213e-14
 1.00599213e-14
 1.00599213e-14
 1.00599213e-14
 1.00599213e-14
 1.00599213e-14
 1.00599213e-14
 1.00599213e-14
 1.00599213e-14
 1.00599213e-14
 1.00599213e-14
 1.00599213e-14
 1.00599213e-14
 1.00599213e-14
 1.00599213e-14
 1.00599213e-14
 1.00599213e-14
 1.00599213e-14
 1.00599213e-14
 1.00599213e-14
 1.00599213e-14
 1.00599213e-14
 1.00599213e-14
 1.00599213e-14
 1.00599213e-14
 1.00599213e-14
 1.00599213e-14
 1.00599213e-14
 1.00599213e-14
 1.00599213e-14
 3.25844625e-06
 3.25844625e-06
 3.25844625e-06
 3.25844625e-06
 2.74427918e-06
 2.74427918e-06
 2.74427918e-06
 2.74427918e-06
 2.74427918e-06
 2.74427918e-06
 2.74427918e-06
 2.74427918e-06
 2.74427918e-06
 2.74427918e-06
 2.74427918e-06
 2.74427918e-06
 2.74427918e-06
 2.74427918e-06
 1.99725030e-06
 1.99725030e-06
 1.99725030e-06
 1.99725030e-06
 1.99725030e-06
 1.99725030e-06
 1.99725030e-06
 1.99725030e-06
 1.99725030e-06
 1.99725030e-06
 1.01449611e-06
 1.01449611e-06
 1.01449611e-06
 1.01449611e-06
 1.01449611e-06
 1.01449611e-06
 1.01449611e-06
 1.01449611e-06
 1.01449611e-06
 1.01449611e-06
 1.01449611e-06
 1.01449611e-06
 1.01449611e-06
 1.11787392e-06
 6.78206883e-07
 6.78206883e-07
 6.78206883e-07
 6.78206883e-07
 6.78206883e-07
 6.78206883e-07
 6.78206883e-07
 7.50225629e-07
 7.50225629e-07
 6.37212534e-07
 6.37212534e-07
 3.52489837e-07
 3.52489837e-07
 3.52489837e-07
 3.52489837e-07
 3.93348582e-07
 3.93348582e-07
 3.93348582e-07
 3.93348582e-07
)
)
1
(
101
(
 8.52740555e-22
 1.22358723e-14
 1.22358723e-14
 1.22358723e-14
 1.22358723e-14
 1.22358723e-14
 1.22358723e-14
 1.22358723e-14
 1.22358723e-14
 1.22358723e-14
 1.22358723e-14
 1.22358723e-14
 1.22358723e-14
 1.22358723e-14
 1.22358723e-14
 1.22358723e-14
 1.22358723e-14
 1.22358723e-14
 1.22358723e-14
 1.22358723e-14
 1.22358723e-14
 1.22358723e-14
 1.22358723e-14
 1.22358723e-14
 1.22358723e-14
 1.22358723e-14
 1.22358723e-14
 1.22358723e-14
 1.22358723e-14
 1.22358723e-14
 1.22358723e-14
 1.22358723e-14
 1.22358723e-14
 1.22358723e-14
 1.22358723e-14
 1.22358723e-14
 1.22358723e-14
 1.22358723e-14
 1.22358723e-14
 1.22358723e-14
 3.25844625e-06
 3.25844625e-06
 3.25844625e-06
 3.25844625e-06
 3.25844625e-06
 2.74427918e-06
 2.74427918e-06
 2.74427918e-06
 2.74427918e-06
 2.74427918e-06
 2.74427918e-06
 2.74427918e-06
 2.74427918e-06
 2.74427918e-06
 2.74427918e-06
 2.74427918e-06
 2.74427918e-06
 2.74427918e-06
 2.74427918e-06
 1.99725030e-06
 1.99725030e-06
 1.99725030e-06
 1.99725030e-06
 1.99725030e-06
 1.99725030e-06
 1.99725030e-06
 1.99725030e-06
 1.99725030e-06
 1.99725030e-06
 1.01449611e-06
 1.01449611e-06
 1.01449611e-06
 1.01449611e-06
 1.01449611e-06
 1.01449611e-06
 1.01449611e-06
 1.01449611e-06
 1.01449611e-06
 1.01449611e-06
 1.01449611e-06
 1.01449611e-06
 1.01449611e-06
 1.11787392e-06
 1.11787392e-06
 6.78206883e-07
 6.78206883e-07
 6.78206883e-07
 6.78206883e-07
 6.78206883e-07
 7.50225629e-07
 7.50225629e-07
 7.50225629e-07
 6.37212534e-07
 6.37212534e-07
 3.52489837e-07
 3.52489837e-07
 3.52489837e-07
 3.52489837e-07
 3.52489837e-07
 3.93348582e-07
 3.93348582e-07
)
)
1
(
101
(
 1.58194246e-14
 1.58194246e-14
 1.58194246e-14
 1.58194246e-14
 1.58194246e-14
 1.58194246e-14
 1.58194246e-14
 1.58194246e-14
 1.58194246e-14
 1.58194246e-14
 1.58194246e-14
 1.58194246e-14
 1.58194246e-14
 1.58194246e-14
 1.58194246e-14
 1.58194246e-14
 1.58194246e-14
 1.58194246e-14
 1.58194246e-14
 1.58194246e-14
 1.58194246e-14
 1.58194246e-14
 1.58194246e-14
 1.58194246e-14
 1.58194246e-14
 1.58194246e-14
 1.58194246e-14
 1.58194246e-14
 1.58194246e-14
 1.58194246e-14
 1.58194246e-14
 1.58194246e-14
 1.58194246e-14
 1.58194246e-14
 1.58194246e-14
 1.58194246e-14
 1.58194246e-14
 1.58194246e-14
 1.58194246e-14
 1.58194246e-14
 3.25844625e-06
 3.25844625e-06
 3.25844625e-06
 3.25844625e-06
 3.25844625e-06
 3.25844625e-06
 2.74427918e-06
 2.74427918e-06
 2.74427918e-06
 2.74427918e-06
 2.74427918e-06
 2.74427918e-06
 2.74427918e-06
 2.74427918e-06
 2.74427918e-06
 2.74427918e-06
 2.74427918e-06
 2.74427918e-06
 2.74427918e-06
 2.74427918e-06
 2.74427918e-06
 1.99725030e-06
 1.99725030e-06
 1.99725030e-06
 1.99725030e-06
 1.99725030e-06
 1.99725030e-06
 1.99725030e-06
 1.99725030e-06
 1.99725030e-06
 1.99725030e-06
 1.01449611e-06
 1.01449611e-06
 1.01449611e-06
 1.01449611e-06
 1.01449611e-06
 1.01449611e-06
 1.01449611e-06
 1.01449611e-06
 1.01449611e-06
 1.01449611e-06
 1.01449611e-06
 1.01449611e-06
 1.11787392e-06
 1.11787392e-06
 1.11787392e-06
 6.78206883e-07
 6.78206883e-07
 6.78206883e-07
 6.78206883e-07
 7.50225629e-07
 7.50225629e-07
 7.50225629e-07
 6.37212534e-07
 6.37212534e-07
 3.52489837e-07
 3.52489837e-07
 3.52489837e-07
 3.52489837e-07
 3.52489837e-07
 3.52489837e-07
)
)
1
(
101
(
 1.89441409e-14
 1.89441409e-14
 1.89441409e-14
 1.89441409e-14
 1.89441409e-14
 1.89441409e-14
 1.89441409e-14
 1.89441409e-14
 1.89441409e-14
 1.89441409e-14
 1.89441409e-14
 1.89441409e-14
 1.89441409e-14
 1.89441409e-14
 1.89441409e-14
 1.89441409e-14
 1.89441409e-14
 1.89441409e-14
 1.89441409e-14
 1.89441409e-14
 1.89441409e-14
 1.89441409e-14
 1.89441409e-14
 1.89441409e-14
 1.89441409e-14
 1.89441409e-14
 1.89441409e-14
 1.89441409e-14
 1.89441409e-14
 1.89441409e-14
 1.89441409e-14
 1.89441409e-14
 1.89441409e-14
 1.89441409e-14
 1.89441409e-14
 1.89441409e-14
 1.89441409e-14
 1.89441409e-14
 1.89441409e-14
 3.25844625e-06
 3.25844625e-06
 3.25844625e-06
 3.25844625e-06
 3.25844625e-06
 3.25844625e-06
 3.25844625e-06
 3.25844625e-06
 3.25844625e-06
 2.74427918e-06
 2.74427918e-06
 2.74427918e-06
 2.74427918e-06
 2.74427918e-06
 2.74427918e-06
 2.74427918e-06
 2.74427918e-06
 2.74427918e-06
 2.74427918e-06
 2.74427918e-06
 2.74427918e-06
 2.74427918e-06
 2.74427918e-06
 1.99725030e-06
 1.99725030e-06
 1.99725030e-06
 1.99725030e-06
 1.99725030e-06
 1.99725030e-06
 1.99725030e-06
 1.99725030e-06
 1.99725030e-06
 1.99725030e-06
 1.01449611e-06
 1.01449611e-06
 1.01449611e-06
 1.01449611e-06
 1.01449611e-06
 1.01449611e-06
 1.01449611e-06
 1.01449611e-06
 1.01449611e-06
 1.01449611e-06
 1.01449611e-06
 1.01449611e-06
 1.11787392e-06
 1.11787392e-06
 1.11787392e-06
 1.11787392e-06
 9.19893309e-07
 9.19893309e-07
 9.19893309e-07
 7.50225629e-07
 7.50225629e-07
 7.50225629e-07
 6.37212534e-07
 6.37212534e-07
 3.52489837e-07
 3.52489837e-07