/*--------------------------------*- C++ -*----------------------------------*\
| =========                 |                                                 |
| \\      /  F ield        | OpenFOAM: The Open Source CFD Toolbox           |
|  \\    /   O peration    | Version:  7                                     |
|   \\  /    A nd          | Web:      http://www.OpenFOAM.com               |
|    \\/     M anipulation |                                                 |
\*---------------------------------------------------------------------------*/

FoamFile
{
    version     2.0;
    format      ascii;
    class       dictionary;
    object      Y_HCCO_table;
}

Y_HCCO_table
2
(
101
(
1
(
101
(
 8.97870239e-22
 8.97870239e-22
 8.97870239e-22
 8.97870239e-22
 8.97870239e-22
 8.97870239e-22
 8.97870239e-22
 8.97870239e-22
 8.97870239e-22
 8.97870239e-22
 8.97870239e-22
 8.97870239e-22
 8.97870239e-22
 8.97870239e-22
 8.97870239e-22
 8.97870239e-22
 8.97870239e-22
 8.97870239e-22
 8.97870239e-22
 8.97870239e-22
 8.97870239e-22
 8.97870239e-22
 8.97870239e-22
 8.97870239e-22
 8.97870239e-22
 8.97870239e-22
 8.97870239e-22
 8.97870239e-22
 8.97870239e-22
 8.97870239e-22
 8.97870239e-22
 8.97870239e-22
 8.97870239e-22
 8.97870239e-22
 8.97870239e-22
 8.97870239e-22
 8.97870239e-22
 8.97870239e-22
 8.97870239e-22
 8.97870239e-22
 8.97870239e-22
 8.97870239e-22
 8.97870239e-22
 8.97870239e-22
 8.97870239e-22
 3.19612818e-11
 3.19612818e-11
 1.83888588e-11
 1.83888588e-11
 1.83888588e-11
 1.83888588e-11
 1.83888588e-11
 1.83888588e-11
 1.83888588e-11
 1.83888588e-11
 1.83888588e-11
 1.83888588e-11
 1.83888588e-11
 1.83888588e-11
 1.83888588e-11
 1.83888588e-11
 1.83888588e-11
 1.83888588e-11
 9.46254333e-12
 9.46254333e-12
 9.46254333e-12
 9.46254333e-12
 9.46254333e-12
 9.46254333e-12
 9.46254333e-12
 9.46254333e-12
 9.46254333e-12
 9.46254333e-12
 9.46254333e-12
 9.46254333e-12
 3.92801068e-12
 3.92801068e-12
 3.92801068e-12
 3.92801068e-12
 3.92801068e-12
 3.92801068e-12
 3.92801068e-12
 2.45916820e-12
 2.45916820e-12
 2.45916820e-12
 2.45916820e-12
 2.45916820e-12
 2.45916820e-12
 1.21186005e-12
 1.21186005e-12
 1.21186005e-12
 1.21186005e-12
 1.21186005e-12
 1.21186005e-12
 1.21186005e-12
 1.65334089e-13
 1.65334089e-13
 1.65334089e-13
 1.65334089e-13
 1.65334089e-13
 2.72535341e-15
)
)
1
(
101
(
 3.00345157e-19
 3.00345157e-19
 3.00345157e-19
 3.00345157e-19
 3.00345157e-19
 3.00345157e-19
 3.00345157e-19
 3.00345157e-19
 3.00345157e-19
 3.00345157e-19
 3.00345157e-19
 3.00345157e-19
 3.00345157e-19
 3.00345157e-19
 3.00345157e-19
 3.00345157e-19
 3.00345157e-19
 3.00345157e-19
 3.00345157e-19
 3.00345157e-19
 3.00345157e-19
 3.00345157e-19
 3.00345157e-19
 3.00345157e-19
 3.00345157e-19
 3.00345157e-19
 3.00345157e-19
 3.00345157e-19
 3.00345157e-19
 3.00345157e-19
 3.00345157e-19
 3.00345157e-19
 3.00345157e-19
 3.00345157e-19
 3.00345157e-19
 3.00345157e-19
 3.00345157e-19
 3.00345157e-19
 3.00345157e-19
 3.00345157e-19
 3.00345157e-19
 3.00345157e-19
 3.00345157e-19
 3.00345157e-19
 3.00345157e-19
 3.19612818e-11
 3.19612818e-11
 3.19612818e-11
 1.83888588e-11
 1.83888588e-11
 1.83888588e-11
 1.83888588e-11
 1.83888588e-11
 1.83888588e-11
 1.83888588e-11
 1.83888588e-11
 1.83888588e-11
 1.83888588e-11
 1.83888588e-11
 1.83888588e-11
 1.83888588e-11
 1.83888588e-11
 1.83888588e-11
 1.83888588e-11
 1.83888588e-11
 9.46254333e-12
 9.46254333e-12
 9.46254333e-12
 9.46254333e-12
 9.46254333e-12
 9.46254333e-12
 9.46254333e-12
 9.46254333e-12
 9.46254333e-12
 9.46254333e-12
 9.46254333e-12
 9.46254333e-12
 3.92801068e-12
 3.92801068e-12
 3.92801068e-12
 3.92801068e-12
 3.92801068e-12
 3.92801068e-12
 2.45916820e-12
 2.45916820e-12
 2.45916820e-12
 2.45916820e-12
 2.45916820e-12
 2.45916820e-12
 2.45916820e-12
 1.21186005e-12
 1.21186005e-12
 1.21186005e-12
 1.21186005e-12
 1.21186005e-12
 1.21186005e-12
 5.14314185e-13
 1.65334089e-13
 1.65334089e-13
 1.65334089e-13
 8.15658219e-14
)
)
1
(
101
(
 2.32197391e-18
 2.32197391e-18
 2.32197391e-18
 2.32197391e-18
 2.32197391e-18
 2.32197391e-18
 2.32197391e-18
 2.32197391e-18
 2.32197391e-18
 2.32197391e-18
 2.32197391e-18
 2.32197391e-18
 2.32197391e-18
 2.32197391e-18
 2.32197391e-18
 2.32197391e-18
 2.32197391e-18
 2.32197391e-18
 2.32197391e-18
 2.32197391e-18
 2.32197391e-18
 2.32197391e-18
 2.32197391e-18
 2.32197391e-18
 2.32197391e-18
 2.32197391e-18
 2.32197391e-18
 2.32197391e-18
 2.32197391e-18
 2.32197391e-18
 2.32197391e-18
 2.32197391e-18
 2.32197391e-18
 2.32197391e-18
 2.32197391e-18
 2.32197391e-18
 2.32197391e-18
 2.32197391e-18
 2.32197391e-18
 2.32197391e-18
 2.32197391e-18
 2.32197391e-18
 2.32197391e-18
 2.32197391e-18
 3.19612818e-11
 3.19612818e-11
 3.19612818e-11
 3.19612818e-11
 3.19612818e-11
 3.19612818e-11
 1.83888588e-11
 1.83888588e-11
 1.83888588e-11
 1.83888588e-11
 1.83888588e-11
 1.83888588e-11
 1.83888588e-11
 1.83888588e-11
 1.83888588e-11
 1.83888588e-11
 1.83888588e-11
 1.83888588e-11
 1.83888588e-11
 1.83888588e-11
 1.83888588e-11
 1.83888588e-11
 9.46254333e-12
 9.46254333e-12
 9.46254333e-12
 9.46254333e-12
 9.46254333e-12
 9.46254333e-12
 9.46254333e-12
 9.46254333e-12
 9.46254333e-12
 9.46254333e-12
 9.46254333e-12
 9.46254333e-12
 3.92801068e-12
 3.92801068e-12
 3.92801068e-12
 3.92801068e-12
 3.92801068e-12
 3.92801068e-12
 3.92801068e-12
 2.45916820e-12
 2.45916820e-12
 2.45916820e-12
 2.45916820e-12
 2.45916820e-12
 2.45916820e-12
 1.21186005e-12
 1.21186005e-12
 1.21186005e-12
 1.21186005e-12
 1.21186005e-12
 1.21186005e-12
 5.14314185e-13
 5.14314185e-13
 2.44364973e-13
 2.44364973e-13
)
)
1
(
101
(
 5.45346055e-18
 5.45346055e-18
 5.45346055e-18
 5.45346055e-18
 5.45346055e-18
 5.45346055e-18
 5.45346055e-18
 5.45346055e-18
 5.45346055e-18
 5.45346055e-18
 5.45346055e-18
 5.45346055e-18
 5.45346055e-18
 5.45346055e-18
 5.45346055e-18
 5.45346055e-18
 5.45346055e-18
 5.45346055e-18
 5.45346055e-18
 5.45346055e-18
 5.45346055e-18
 5.45346055e-18
 5.45346055e-18
 5.45346055e-18
 5.45346055e-18
 5.45346055e-18
 5.45346055e-18
 5.45346055e-18
 5.45346055e-18
 5.45346055e-18
 5.45346055e-18
 5.45346055e-18
 5.45346055e-18
 5.45346055e-18
 5.45346055e-18
 5.45346055e-18
 5.45346055e-18
 5.45346055e-18
 5.45346055e-18
 5.45346055e-18
 5.45346055e-18
 5.45346055e-18
 5.45346055e-18
 5.45346055e-18
 3.92205421e-11
 3.19612818e-11
 3.19612818e-11
 3.19612818e-11
 3.19612818e-11
 3.19612818e-11
 3.19612818e-11
 1.83888588e-11
 1.83888588e-11
 1.83888588e-11
 1.83888588e-11
 1.83888588e-11
 1.83888588e-11
 1.83888588e-11
 1.83888588e-11
 1.83888588e-11
 1.83888588e-11
 1.83888588e-11
 1.83888588e-11
 1.83888588e-11
 1.83888588e-11
 1.83888588e-11
 1.83888588e-11
 9.46254333e-12
 9.46254333e-12
 9.46254333e-12
 9.46254333e-12
 9.46254333e-12
 9.46254333e-12
 9.46254333e-12
 9.46254333e-12
 9.46254333e-12
 9.46254333e-12
 9.46254333e-12
 9.46254333e-12
 5.64831163e-12
 3.92801068e-12
 3.92801068e-12
 3.92801068e-12
 3.92801068e-12
 3.92801068e-12
 3.92801068e-12
 2.45916820e-12
 2.45916820e-12
 2.45916820e-12
 2.45916820e-12
 2.45916820e-12
 2.45916820e-12
 2.45916820e-12
 1.21186005e-12
 1.21186005e-12
 1.21186005e-12
 1.21186005e-12
 1.21186005e-12
 5.14314185e-13
 2.76280086e-14
 2.76280086e-14
)
)
1
(
101
(
 1.45759167e-17
 1.45759167e-17
 1.45759167e-17
 1.45759167e-17
 1.45759167e-17
 1.45759167e-17
 1.45759167e-17
 1.45759167e-17
 1.45759167e-17
 1.45759167e-17
 1.45759167e-17
 1.45759167e-17
 1.45759167e-17
 1.45759167e-17
 1.45759167e-17
 1.45759167e-17
 1.45759167e-17
 1.45759167e-17
 1.45759167e-17
 1.45759167e-17
 1.45759167e-17
 1.45759167e-17
 1.45759167e-17
 1.45759167e-17
 1.45759167e-17
 1.45759167e-17
 1.45759167e-17
 1.45759167e-17
 1.45759167e-17
 1.45759167e-17
 1.45759167e-17
 1.45759167e-17
 1.45759167e-17
 1.45759167e-17
 1.45759167e-17
 1.45759167e-17
 1.45759167e-17
 1.45759167e-17
 1.45759167e-17
 1.45759167e-17
 1.45759167e-17
 1.45759167e-17
 1.45759167e-17
 1.45759167e-17
 3.92205421e-11
 3.92205421e-11
 3.92205421e-11
 3.19612818e-11
 3.19612818e-11
 3.19612818e-11
 3.19612818e-11
 3.19612818e-11
 3.19612818e-11
 1.83888588e-11
 1.83888588e-11
 1.83888588e-11
 1.83888588e-11
 1.83888588e-11
 1.83888588e-11
 1.83888588e-11
 1.83888588e-11
 1.83888588e-11
 1.83888588e-11
 1.83888588e-11
 1.83888588e-11
 1.83888588e-11
 1.83888588e-11
 1.83888588e-11
 9.46254333e-12
 9.46254333e-12
 9.46254333e-12
 9.46254333e-12
 9.46254333e-12
 9.46254333e-12
 9.46254333e-12
 9.46254333e-12
 9.46254333e-12
 9.46254333e-12
 9.46254333e-12
 9.46254333e-12
 5.64831163e-12
 3.92801068e-12
 3.92801068e-12
 3.92801068e-12
 3.92801068e-12
 3.92801068e-12
 3.92801068e-12
 3.92801068e-12
 2.45916820e-12
 2.45916820e-12
 2.45916820e-12
 2.45916820e-12
 2.45916820e-12
 2.45916820e-12
 6.88627170e-13
 1.21186005e-12
 1.21186005e-12
 1.21186005e-12
 3.39851592e-13
 3.39851592e-13
 2.76280086e-14
)
)
1
(
101
(
 2.25729777e-17
 2.25729777e-17
 2.25729777e-17
 2.25729777e-17
 2.25729777e-17
 2.25729777e-17
 2.25729777e-17
 2.25729777e-17
 2.25729777e-17
 2.25729777e-17
 2.25729777e-17
 2.25729777e-17
 2.25729777e-17
 2.25729777e-17
 2.25729777e-17
 2.25729777e-17
 2.25729777e-17
 2.25729777e-17
 2.25729777e-17
 2.25729777e-17
 2.25729777e-17
 2.25729777e-17
 2.25729777e-17
 2.25729777e-17
 2.25729777e-17
 2.25729777e-17
 2.25729777e-17
 2.25729777e-17
 2.25729777e-17
 2.25729777e-17
 2.25729777e-17
 2.25729777e-17
 2.25729777e-17
 2.25729777e-17
 2.25729777e-17
 2.25729777e-17
 2.25729777e-17
 2.25729777e-17
 2.25729777e-17
 2.25729777e-17
 2.25729777e-17
 2.25729777e-17
 1.55392415e-15
 3.92205421e-11
 3.92205421e-11
 3.92205421e-11
 3.92205421e-11
 3.92205421e-11
 3.19612818e-11
 3.19612818e-11
 3.19612818e-11
 3.19612818e-11
 3.19612818e-11
 3.19612818e-11
 1.83888588e-11
 1.83888588e-11
 1.83888588e-11
 1.83888588e-11
 1.83888588e-11
 1.83888588e-11
 1.83888588e-11
 1.83888588e-11
 1.83888588e-11
 1.83888588e-11
 1.83888588e-11
 1.83888588e-11
 1.83888588e-11
 1.83888588e-11
 1.83888588e-11
 1.83888588e-11
 9.46254333e-12
 9.46254333e-12
 9.46254333e-12
 9.46254333e-12
 9.46254333e-12
 9.46254333e-12
 9.46254333e-12
 9.46254333e-12
 9.46254333e-12
 9.46254333e-12
 9.46254333e-12
 5.64831163e-12
 5.64831163e-12
 3.92801068e-12
 3.92801068e-12
 3.92801068e-12
 3.92801068e-12
 3.92801068e-12
 3.92801068e-12
 2.45916820e-12
 2.45916820e-12
 2.45916820e-12
 2.45916820e-12
 2.45916820e-12
 2.45916820e-12
 6.88627170e-13
 6.88627170e-13
 7.51894593e-13
 7.51894593e-13
 3.39851592e-13
 3.39851592e-13
)
)
1
(
101
(
 6.29103075e-17
 6.29103075e-17
 6.29103075e-17
 6.29103075e-17
 6.29103075e-17
 6.29103075e-17
 6.29103075e-17
 6.29103075e-17
 6.29103075e-17
 6.29103075e-17
 6.29103075e-17
 6.29103075e-17
 6.29103075e-17
 6.29103075e-17
 6.29103075e-17
 6.29103075e-17
 6.29103075e-17
 6.29103075e-17
 6.29103075e-17
 6.29103075e-17
 6.29103075e-17
 6.29103075e-17
 6.29103075e-17
 6.29103075e-17
 6.29103075e-17
 6.29103075e-17
 6.29103075e-17
 6.29103075e-17
 6.29103075e-17
 6.29103075e-17
 6.29103075e-17
 6.29103075e-17
 6.29103075e-17
 1.55392415e-15
 1.55392415e-15
 1.55392415e-15
 1.55392415e-15
 1.55392415e-15
 1.55392415e-15
 1.55392415e-15
 1.55392415e-15
 1.55392415e-15
 1.55392415e-15
 3.92205421e-11
 3.92205421e-11
 3.92205421e-11
 3.92205421e-11
 3.92205421e-11
 3.92205421e-11
 3.19612818e-11
 3.19612818e-11
 3.19612818e-11
 3.19612818e-11
 3.19612818e-11
 3.19612818e-11
 3.19612818e-11
 1.83888588e-11
 1.83888588e-11
 1.83888588e-11
 1.83888588e-11
 1.83888588e-11
 1.83888588e-11
 1.83888588e-11
 1.83888588e-11
 1.83888588e-11
 1.83888588e-11
 1.83888588e-11
 1.83888588e-11
 1.83888588e-11
 1.83888588e-11
 1.83888588e-11
 9.46254333e-12
 9.46254333e-12
 9.46254333e-12
 9.46254333e-12
 9.46254333e-12
 9.46254333e-12
 9.46254333e-12
 9.46254333e-12
 9.46254333e-12
 9.46254333e-12
 9.46254333e-12
 5.64831163e-12
 5.64831163e-12
 3.92801068e-12
 3.92801068e-12
 3.92801068e-12
 3.92801068e-12
 3.92801068e-12
 3.92801068e-12
 3.92801068e-12
 2.45916820e-12
 2.45916820e-12
 2.45916820e-12
 2.45916820e-12
 2.45916820e-12
 6.88627170e-13
 6.88627170e-13
 7.51894593e-13
 7.51894593e-13
 3.39851592e-13
)
)
1
(
101
(
 8.79276591e-17
 8.79276591e-17
 8.79276591e-17
 8.79276591e-17
 8.79276591e-17
 8.79276591e-17
 8.79276591e-17
 8.79276591e-17
 8.79276591e-17
 8.79276591e-17
 8.79276591e-17
 8.79276591e-17
 8.79276591e-17
 8.79276591e-17
 8.79276591e-17
 8.79276591e-17
 8.79276591e-17
 8.79276591e-17
 8.79276591e-17
 8.79276591e-17
 8.79276591e-17
 8.79276591e-17
 8.79276591e-17
 8.79276591e-17
 8.79276591e-17
 8.79276591e-17
 1.55392415e-15
 1.55392415e-15
 1.55392415e-15
 1.55392415e-15
 1.55392415e-15
 1.55392415e-15
 1.55392415e-15
 1.55392415e-15
 1.55392415e-15
 1.55392415e-15
 1.55392415e-15
 1.55392415e-15
 1.55392415e-15
 1.55392415e-15
 1.55392415e-15
 1.55392415e-15
 1.55392415e-15
 3.92205421e-11
 3.92205421e-11
 3.92205421e-11
 3.92205421e-11
 3.92205421e-11
 3.92205421e-11
 3.92205421e-11
 3.19612818e-11
 3.19612818e-11
 3.19612818e-11
 3.19612818e-11
 3.19612818e-11
 3.19612818e-11
 3.19612818e-11
 1.83888588e-11
 1.83888588e-11
 1.83888588e-11
 1.83888588e-11
 1.83888588e-11
 1.83888588e-11
 1.83888588e-11
 1.83888588e-11
 1.83888588e-11
 1.83888588e-11
 1.83888588e-11
 1.83888588e-11
 1.83888588e-11
 1.83888588e-11
 1.83888588e-11
 9.46254333e-12
 9.46254333e-12
 9.46254333e-12
 9.46254333e-12
 9.46254333e-12
 9.46254333e-12
 9.46254333e-12
 9.46254333e-12
 9.46254333e-12
 9.46254333e-12
 9.46254333e-12
 5.64831163e-12
 5.64831163e-12
 5.64831163e-12
 3.92801068e-12
 3.92801068e-12
 3.92801068e-12
 3.92801068e-12
 3.92801068e-12
 3.92801068e-12
 2.25607004e-12
 2.45916820e-12
 2.45916820e-12
 2.45916820e-12
 1.17358416e-12
 1.17358416e-12
 1.17358416e-12
 7.51894593e-13
 7.51894593e-13
)
)
1
(
101
(
 1.32771860e-16
 1.32771860e-16
 1.32771860e-16
 1.32771860e-16
 1.32771860e-16
 1.32771860e-16
 1.32771860e-16
 1.32771860e-16
 1.32771860e-16
 1.32771860e-16
 1.32771860e-16
 1.32771860e-16
 1.32771860e-16
 1.32771860e-16
 1.32771860e-16
 1.32771860e-16
 1.32771860e-16
 1.32771860e-16
 1.32771860e-16
 1.55392415e-15
 1.55392415e-15
 1.55392415e-15
 1.55392415e-15
 1.55392415e-15
 1.55392415e-15
 1.55392415e-15
 1.55392415e-15
 1.55392415e-15
 1.55392415e-15
 1.55392415e-15
 1.55392415e-15
 1.55392415e-15
 1.55392415e-15
 1.55392415e-15
 1.55392415e-15
 1.55392415e-15
 1.55392415e-15
 1.55392415e-15
 1.55392415e-15
 1.55392415e-15
 1.55392415e-15
 1.55392415e-15
 3.92205421e-11
 3.92205421e-11
 3.92205421e-11
 3.92205421e-11
 3.92205421e-11
 3.92205421e-11
 3.92205421e-11
 3.92205421e-11
 3.92205421e-11
 3.19612818e-11
 3.19612818e-11
 3.19612818e-11
 3.19612818e-11
 3.19612818e-11
 3.19612818e-11
 3.19612818e-11
 3.19612818e-11
 1.83888588e-11
 1.83888588e-11
 1.83888588e-11
 1.83888588e-11
 1.83888588e-11
 1.83888588e-11
 1.83888588e-11
 1.83888588e-11
 1.83888588e-11
 1.83888588e-11
 1.83888588e-11
 1.83888588e-11
 1.83888588e-11
 1.83888588e-11
 9.46254333e-12
 9.46254333e-12
 9.46254333e-12
 9.46254333e-12
 9.46254333e-12
 9.46254333e-12
 9.46254333e-12
 9.46254333e-12
 9.46254333e-12
 9.46254333e-12
 9.46254333e-12
 5.64831163e-12
 5.64831163e-12
 5.64831163e-12
 3.92801068e-12
 3.92801068e-12
 3.92801068e-12
 3.92801068e-12
 3.92801068e-12
 3.92801068e-12
 2.25607004e-12
 2.25607004e-12
 9.92604341e-13
 9.92604341e-13
 1.17358416e-12
 1.17358416e-12
 1.17358416e-12
 1.17358416e-12
)
)
1
(
101
(
 3.96167328e-16
 3.96167328e-16
 3.96167328e-16
 3.96167328e-16
 3.96167328e-16
 3.96167328e-16
 3.96167328e-16
 3.96167328e-16
 3.96167328e-16
 3.96167328e-16
 3.96167328e-16
 3.96167328e-16
 3.96167328e-16
 3.96167328e-16
 1.55392415e-15
 1.55392415e-15
 1.55392415e-15
 1.55392415e-15
 1.55392415e-15
 1.55392415e-15
 1.55392415e-15
 1.55392415e-15
 1.55392415e-15
 1.55392415e-15
 1.55392415e-15
 1.55392415e-15
 1.55392415e-15
 1.55392415e-15
 1.55392415e-15
 1.55392415e-15
 1.55392415e-15
 1.55392415e-15
 1.55392415e-15
 1.55392415e-15
 1.55392415e-15
 1.55392415e-15
 1.55392415e-15
 1.55392415e-15
 1.55392415e-15
 1.55392415e-15
 1.55392415e-15
 1.55392415e-15
 3.92205421e-11
 3.92205421e-11
 3.92205421e-11
 3.92205421e-11
 3.92205421e-11
 3.92205421e-11
 3.92205421e-11
 3.92205421e-11
 3.92205421e-11
 3.92205421e-11
 3.19612818e-11
 3.19612818e-11
 3.19612818e-11
 3.19612818e-11
 3.19612818e-11
 3.19612818e-11
 3.19612818e-11
 3.19612818e-11
 1.83888588e-11
 1.83888588e-11
 1.83888588e-11
 1.83888588e-11
 1.83888588e-11
 1.83888588e-11
 1.83888588e-11
 1.83888588e-11
 1.83888588e-11
 1.83888588e-11
 1.83888588e-11
 1.83888588e-11
 1.83888588e-11
 1.83888588e-11
 1.83888588e-11
 9.46254333e-12
 9.46254333e-12
 9.46254333e-12
 9.46254333e-12
 9.46254333e-12
 9.46254333e-12
 9.46254333e-12
 9.46254333e-12
 9.46254333e-12
 9.46254333e-12
 5.64831163e-12
 5.64831163e-12
 5.64831163e-12
 5.64831163e-12
 3.92801068e-12
 3.92801068e-12
 3.92801068e-12
 3.92801068e-12
 3.92801068e-12
 2.25607004e-12
 2.25607004e-12
 9.92604341e-13
 9.92604341e-13
 1.17358416e-12
 1.17358416e-12
 1.17358416e-12
)
)
1
(
101
(
 4.48298644e-16
 4.48298644e-16
 4.48298644e-16
 4.48298644e-16
 4.48298644e-16
 4.48298644e-16
 4.48298644e-16
 4.48298644e-16
 4.48298644e-16
 1.55392415e-15
 1.55392415e-15
 1.55392415e-15
 1.55392415e-15
 1.55392415e-15
 1.55392415e-15
 1.55392415e-15
 1.55392415e-15
 1.55392415e-15
 1.55392415e-15
 1.55392415e-15
 1.55392415e-15
 1.55392415e-15
 1.55392415e-15
 1.55392415e-15
 1.55392415e-15
 1.55392415e-15
 1.55392415e-15
 1.55392415e-15
 1.55392415e-15
 1.55392415e-15
 1.55392415e-15
 1.55392415e-15
 1.55392415e-15
 1.55392415e-15
 1.55392415e-15
 1.55392415e-15
 1.55392415e-15
 1.55392415e-15
 1.55392415e-15
 1.55392415e-15
 1.55392415e-15
 1.55392415e-15
 3.92205421e-11
 3.92205421e-11
 3.92205421e-11
 3.92205421e-11
 3.92205421e-11
 3.92205421e-11
 3.92205421e-11
 3.92205421e-11
 3.92205421e-11
 3.92205421e-11
 3.92205421e-11
 3.92205421e-11
 3.19612818e-11
 3.19612818e-11
 3.19612818e-11
 3.19612818e-11
 3.19612818e-11
 3.19612818e-11
 3.19612818e-11
 3.19612818e-11
 1.83888588e-11
 1.83888588e-11
 1.83888588e-11
 1.83888588e-11
 1.83888588e-11
 1.83888588e-11
 1.83888588e-11
 1.83888588e-11
 1.83888588e-11
 1.83888588e-11
 1.83888588e-11
 1.83888588e-11
 1.83888588e-11
 1.83888588e-11
 9.46254333e-12
 9.46254333e-12
 9.46254333e-12
 9.46254333e-12
 9.46254333e-12
 9.46254333e-12
 9.46254333e-12
 9.46254333e-12
 9.46254333e-12
 9.46254333e-12
 5.64831163e-12
 5.64831163e-12
 5.64831163e-12
 5.64831163e-12
 3.38914288e-12
 3.92801068e-12
 3.92801068e-12
 3.92801068e-12
 3.92801068e-12
 2.25607004e-12
 2.25607004e-12
 9.92604341e-13
 9.92604341e-13
 1.17358416e-12
 1.17358416e-12
)
)
1
(
101
(
 6.99918427e-16
 6.99918427e-16
 6.99918427e-16
 6.99918427e-16
 6.99918427e-16
 6.99918427e-16
 1.55392415e-15
 1.55392415e-15
 1.55392415e-15
 1.55392415e-15
 1.55392415e-15
 1.55392415e-15
 1.55392415e-15
 1.55392415e-15
 1.55392415e-15
 1.55392415e-15
 1.55392415e-15
 1.55392415e-15
 1.55392415e-15
 1.55392415e-15
 1.55392415e-15
 1.55392415e-15
 1.55392415e-15
 1.55392415e-15
 1.55392415e-15
 1.55392415e-15
 1.55392415e-15
 1.55392415e-15
 1.55392415e-15
 1.55392415e-15
 1.55392415e-15
 1.55392415e-15
 1.55392415e-15
 1.55392415e-15
 1.55392415e-15
 1.55392415e-15
 1.55392415e-15
 1.55392415e-15
 1.55392415e-15
 1.55392415e-15
 1.55392415e-15
 1.55392415e-15
 3.92205421e-11
 3.92205421e-11
 3.92205421e-11
 3.92205421e-11
 3.92205421e-11
 3.92205421e-11
 3.92205421e-11
 3.92205421e-11
 3.92205421e-11
 3.92205421e-11
 3.92205421e-11
 3.92205421e-11
 3.92205421e-11
 3.19612818e-11
 3.19612818e-11
 3.19612818e-11
 3.19612818e-11
 3.19612818e-11
 3.19612818e-11
 3.19612818e-11
 3.19612818e-11
 1.83888588e-11
 1.83888588e-11
 1.83888588e-11
 1.83888588e-11
 1.83888588e-11
 1.83888588e-11
 1.83888588e-11
 1.83888588e-11
 1.83888588e-11
 1.83888588e-11
 1.83888588e-11
 1.83888588e-11
 1.83888588e-11
 1.83888588e-11
 9.46254333e-12
 9.46254333e-12
 9.46254333e-12
 9.46254333e-12
 9.46254333e-12
 9.46254333e-12
 9.46254333e-12
 9.46254333e-12
 9.46254333e-12
 9.46254333e-12
 5.64831163e-12
 5.64831163e-12
 5.64831163e-12
 5.64831163e-12
 3.38914288e-12
 3.38914288e-12
 1.79098218e-12
 1.79098218e-12
 1.79098218e-12
 2.25607004e-12
 2.25607004e-12
 9.92604341e-13
 9.92604341e-13
 1.17358416e-12
)
)
1
(
101
(
 1.18264554e-15
 1.18264554e-15
 1.18264554e-15
 1.55392415e-15
 1.55392415e-15
 1.55392415e-15
 1.55392415e-15
 1.55392415e-15
 1.55392415e-15
 1.55392415e-15
 1.55392415e-15
 1.55392415e-15
 1.55392415e-15
 1.55392415e-15
 1.55392415e-15
 1.55392415e-15
 1.55392415e-15
 1.55392415e-15
 1.55392415e-15
 1.55392415e-15
 1.55392415e-15
 1.55392415e-15
 1.55392415e-15
 1.55392415e-15
 1.55392415e-15
 1.55392415e-15
 1.55392415e-15
 1.55392415e-15
 1.55392415e-15
 1.55392415e-15
 1.55392415e-15
 1.55392415e-15
 1.55392415e-15
 1.55392415e-15
 1.55392415e-15
 1.55392415e-15
 1.55392415e-15
 1.55392415e-15
 1.55392415e-15
 1.55392415e-15
 1.55392415e-15
 2.14567514e-11
 3.92205421e-11
 3.92205421e-11
 3.92205421e-11
 3.92205421e-11
 3.92205421e-11
 3.92205421e-11
 3.92205421e-11
 3.92205421e-11
 3.92205421e-11
 3.92205421e-11
 3.92205421e-11
 3.92205421e-11
 3.92205421e-11
 3.92205421e-11
 3.19612818e-11
 3.19612818e-11
 3.19612818e-11
 3.19612818e-11
 3.19612818e-11
 3.19612818e-11
 3.19612818e-11
 3.19612818e-11
 3.19612818e-11
 1.83888588e-11
 1.83888588e-11
 1.83888588e-11
 1.83888588e-11
 1.83888588e-11
 1.83888588e-11
 1.83888588e-11
 1.83888588e-11
 1.83888588e-11
 1.83888588e-11
 1.83888588e-11
 1.83888588e-11
 1.83888588e-11
 9.46254333e-12
 9.46254333e-12
 9.46254333e-12
 9.46254333e-12
 9.46254333e-12
 9.46254333e-12
 9.46254333e-12
 9.46254333e-12
 9.46254333e-12
 9.46254333e-12
 5.64831163e-12
 5.64831163e-12
 5.64831163e-12
 5.64831163e-12
 3.38914288e-12
 3.38914288e-12
 1.79098218e-12
 1.79098218e-12
 1.79098218e-12
 1.79098218e-12
 2.25607004e-12
 9.92604341e-13
 9.92604341e-13
)
)
1
(
101
(
 3.60285470e-16
 3.60285470e-16
 1.55392415e-15
 1.55392415e-15
 1.55392415e-15
 1.55392415e-15
 1.55392415e-15
 1.55392415e-15
 1.55392415e-15
 1.55392415e-15
 1.55392415e-15
 1.55392415e-15
 1.55392415e-15
 1.55392415e-15
 1.55392415e-15
 1.55392415e-15
 1.55392415e-15
 1.55392415e-15
 1.55392415e-15
 1.55392415e-15
 1.55392415e-15
 1.55392415e-15
 1.55392415e-15
 1.55392415e-15
 1.55392415e-15
 1.55392415e-15
 1.55392415e-15
 1.55392415e-15
 1.55392415e-15
 1.55392415e-15
 1.55392415e-15
 1.55392415e-15
 1.55392415e-15
 1.55392415e-15
 1.55392415e-15
 1.55392415e-15
 1.55392415e-15
 1.55392415e-15
 1.55392415e-15
 1.55392415e-15
 1.55392415e-15
 2.14567514e-11
 2.14567514e-11
 3.92205421e-11
 3.92205421e-11
 3.92205421e-11
 3.92205421e-11
 3.92205421e-11
 3.92205421e-11
 3.92205421e-11
 3.92205421e-11
 3.92205421e-11
 3.92205421e-11
 3.92205421e-11
 3.92205421e-11
 3.92205421e-11
 3.92205421e-11
 3.19612818e-11
 3.19612818e-11
 3.19612818e-11
 3.19612818e-11
 3.19612818e-11
 3.19612818e-11
 3.19612818e-11
 3.19612818e-11
 3.19612818e-11
 1.83888588e-11
 1.83888588e-11
 1.83888588e-11
 1.83888588e-11
 1.83888588e-11
 1.83888588e-11
 1.83888588e-11
 1.83888588e-11
 1.83888588e-11
 1.83888588e-11
 1.83888588e-11
 1.83888588e-11
 1.83888588e-11
 1.83888588e-11
 9.46254333e-12
 9.46254333e-12
 9.46254333e-12
 9.46254333e-12
 9.46254333e-12
 9.46254333e-12
 9.46254333e-12
 9.46254333e-12
 4.91779484e-12
 5.64831163e-12
 5.64831163e-12
 5.64831163e-12
 2.20138736e-14
 2.20138736e-14
 2.20138736e-14
 1.79098218e-12
 1.79098218e-12
 1.79098218e-12
 1.79098218e-12
 1.79098218e-12
 9.92604341e-13
)
)
1
(
101
(
 1.04595926e-23
 1.55392415e-15
 1.55392415e-15
 1.55392415e-15
 1.55392415e-15
 1.55392415e-15
 1.55392415e-15
 1.55392415e-15
 1.55392415e-15
 1.55392415e-15
 1.55392415e-15
 1.55392415e-15
 1.55392415e-15
 1.55392415e-15
 1.55392415e-15
 1.55392415e-15
 1.55392415e-15
 1.55392415e-15
 1.55392415e-15
 1.55392415e-15
 1.55392415e-15
 1.55392415e-15
 1.55392415e-15
 1.55392415e-15
 1.55392415e-15
 1.55392415e-15
 1.55392415e-15
 1.55392415e-15
 1.55392415e-15
 1.55392415e-15
 1.55392415e-15
 1.55392415e-15
 1.55392415e-15
 1.55392415e-15
 1.55392415e-15
 1.55392415e-15
 1.55392415e-15
 1.55392415e-15
 1.55392415e-15
 1.55392415e-15
 2.14567514e-11
 2.14567514e-11
 2.14567514e-11
 2.14567514e-11
 3.92205421e-11
 3.92205421e-11
 3.92205421e-11
 3.92205421e-11
 3.92205421e-11
 3.92205421e-11
 3.92205421e-11
 3.92205421e-11
 3.92205421e-11
 3.92205421e-11
 3.92205421e-11
 3.92205421e-11
 3.92205421e-11
 3.92205421e-11
 3.19612818e-11
 3.19612818e-11
 3.19612818e-11
 3.19612818e-11
 3.19612818e-11
 3.19612818e-11
 3.19612818e-11
 3.19612818e-11
 3.19612818e-11
 3.19612818e-11
 1.83888588e-11
 1.83888588e-11
 1.83888588e-11
 1.83888588e-11
 1.83888588e-11
 1.83888588e-11
 1.83888588e-11
 1.83888588e-11
 1.83888588e-11
 1.83888588e-11
 1.83888588e-11
 1.83888588e-11
 1.83888588e-11
 1.56822757e-11
 9.46254333e-12
 9.46254333e-12
 9.46254333e-12
 9.46254333e-12
 9.46254333e-12
 9.46254333e-12
 9.46254333e-12
 4.91779484e-12
 4.91779484e-12
 2.30665862e-12
 2.30665862e-12
 2.20138736e-14
 2.20138736e-14
 2.20138736e-14
 2.20138736e-14
 1.79098218e-12
 1.79098218e-12
 1.79098218e-12
 1.79098218e-12
)
)
1
(
101
(
 1.04595926e-23
 2.77925495e-15
 2.77925495e-15
 2.77925495e-15
 2.77925495e-15
 2.77925495e-15
 2.77925495e-15
 2.77925495e-15
 2.77925495e-15
 2.77925495e-15
 2.77925495e-15
 2.77925495e-15
 2.77925495e-15
 2.77925495e-15
 2.77925495e-15
 2.77925495e-15
 2.77925495e-15
 2.77925495e-15
 2.77925495e-15
 2.77925495e-15
 2.77925495e-15
 2.77925495e-15
 2.77925495e-15
 2.77925495e-15
 2.77925495e-15
 2.77925495e-15
 2.77925495e-15
 2.77925495e-15
 2.77925495e-15
 2.77925495e-15
 2.77925495e-15
 2.77925495e-15
 2.77925495e-15
 2.77925495e-15
 2.77925495e-15
 2.77925495e-15
 2.77925495e-15
 2.77925495e-15
 2.77925495e-15
 2.77925495e-15
 2.14567514e-11
 2.14567514e-11
 2.14567514e-11
 2.14567514e-11
 2.14567514e-11
 3.92205421e-11
 3.92205421e-11
 3.92205421e-11
 3.92205421e-11
 3.92205421e-11
 3.92205421e-11
 3.92205421e-11
 3.92205421e-11
 3.92205421e-11
 3.92205421e-11
 3.92205421e-11
 3.92205421e-11
 3.92205421e-11
 3.92205421e-11
 3.19612818e-11
 3.19612818e-11
 3.19612818e-11
 3.19612818e-11
 3.19612818e-11
 3.19612818e-11
 3.19612818e-11
 3.19612818e-11
 3.19612818e-11
 3.19612818e-11
 1.83888588e-11
 1.83888588e-11
 1.83888588e-11
 1.83888588e-11
 1.83888588e-11
 1.83888588e-11
 1.83888588e-11
 1.83888588e-11
 1.83888588e-11
 1.83888588e-11
 1.83888588e-11
 1.83888588e-11
 1.83888588e-11
 1.56822757e-11
 1.56822757e-11
 9.46254333e-12
 9.46254333e-12
 9.46254333e-12
 9.46254333e-12
 9.46254333e-12
 4.91779484e-12
 4.91779484e-12
 4.91779484e-12
 2.30665862e-12
 2.30665862e-12
 2.20138736e-14
 2.20138736e-14
 2.20138736e-14
 2.20138736e-14
 2.20138736e-14
 1.79098218e-12
 1.79098218e-12
)
)
1
(
101
(
 4.81832258e-15
 4.81832258e-15
 4.81832258e-15
 4.81832258e-15
 4.81832258e-15
 4.81832258e-15
 4.81832258e-15
 4.81832258e-15
 4.81832258e-15
 4.81832258e-15
 4.81832258e-15
 4.81832258e-15
 4.81832258e-15
 4.81832258e-15
 4.81832258e-15
 4.81832258e-15
 4.81832258e-15
 4.81832258e-15
 4.81832258e-15
 4.81832258e-15
 4.81832258e-15
 4.81832258e-15
 4.81832258e-15
 4.81832258e-15
 4.81832258e-15
 4.81832258e-15
 4.81832258e-15
 4.81832258e-15
 4.81832258e-15
 4.81832258e-15
 4.81832258e-15
 4.81832258e-15
 4.81832258e-15
 4.81832258e-15
 4.81832258e-15
 4.81832258e-15
 4.81832258e-15
 4.81832258e-15
 4.81832258e-15
 4.81832258e-15
 2.14567514e-11
 2.14567514e-11
 2.14567514e-11
 2.14567514e-11
 2.14567514e-11
 2.14567514e-11
 3.92205421e-11
 3.92205421e-11
 3.92205421e-11
 3.92205421e-11
 3.92205421e-11
 3.92205421e-11
 3.92205421e-11
 3.92205421e-11
 3.92205421e-11
 3.92205421e-11
 3.92205421e-11
 3.92205421e-11
 3.92205421e-11
 3.92205421e-11
 3.92205421e-11
 3.19612818e-11
 3.19612818e-11
 3.19612818e-11
 3.19612818e-11
 3.19612818e-11
 3.19612818e-11
 3.19612818e-11
 3.19612818e-11
 3.19612818e-11
 3.19612818e-11
 1.83888588e-11
 1.83888588e-11
 1.83888588e-11
 1.83888588e-11
 1.83888588e-11
 1.83888588e-11
 1.83888588e-11
 1.83888588e-11
 1.83888588e-11
 1.83888588e-11
 1.83888588e-11
 1.83888588e-11
 1.56822757e-11
 1.56822757e-11
 1.56822757e-11
 9.46254333e-12
 9.46254333e-12
 9.46254333e-12
 9.46254333e-12
 4.91779484e-12
 4.91779484e-12
 4.91779484e-12
 2.30665862e-12
 2.30665862e-12
 2.20138736e-14
 2.20138736e-14
 2.20138736e-14
 2.20138736e-14
 2.20138736e-14
 2.20138736e-14
)
)
1
(
101
(
 7.73019301e-15
 7.73019301e-15
 7.73019301e-15
 7.73019301e-15
 7.73019301e-15
 7.73019301e-15
 7.73019301e-15
 7.73019301e-15
 7.73019301e-15
 7.73019301e-15
 7.73019301e-15
 7.73019301e-15
 7.73019301e-15
 7.73019301e-15
 7.73019301e-15
 7.73019301e-15
 7.73019301e-15
 7.73019301e-15
 7.73019301e-15
 7.73019301e-15
 7.73019301e-15
 7.73019301e-15
 7.73019301e-15
 7.73019301e-15
 7.73019301e-15
 7.73019301e-15
 7.73019301e-15
 7.73019301e-15
 7.73019301e-15
 7.73019301e-15
 7.73019301e-15
 7.73019301e-15
 7.73019301e-15
 7.73019301e-15
 7.73019301e-15
 7.73019301e-15
 7.73019301e-15
 7.73019301e-15
 7.73019301e-15
 2.14567514e-11
 2.14567514e-11
 2.14567514e-11
 2.14567514e-11
 2.14567514e-11
 2.14567514e-11
 2.14567514e-11
 2.14567514e-11
 2.14567514e-11
 3.92205421e-11
 3.92205421e-11
 3.92205421e-11
 3.92205421e-11
 3.92205421e-11
 3.92205421e-11
 3.92205421e-11
 3.92205421e-11
 3.92205421e-11
 3.92205421e-11
 3.92205421e-11
 3.92205421e-11
 3.92205421e-11
 3.92205421e-11
 3.19612818e-11
 3.19612818e-11
 3.19612818e-11
 3.19612818e-11
 3.19612818e-11
 3.19612818e-11
 3.19612818e-11
 3.19612818e-11
 3.19612818e-11
 3.19612818e-11
 1.83888588e-11
 1.83888588e-11
 1.83888588e-11
 1.83888588e-11
 1.83888588e-11
 1.83888588e-11
 1.83888588e-11
 1.83888588e-11
 1.83888588e-11
 1.83888588e-11
 1.83888588e-11
 1.83888588e-11
 1.56822757e-11
 1.56822757e-11
 1.56822757e-11
 1.56822757e-11
 7.61194053e-12
 7.61194053e-12
 7.61194053e-12
 4.91779484e-12
 4.91779484e-12
 4.91779484e-12
 2.30665862e-12
 2.30665862e-12
 2.20138736e-14
 2.20138736e-14
 2.20138736e-14