/*--------------------------------*- C++ -*----------------------------------*\
| =========                 |                                                 |
| \\      /  F ield        | OpenFOAM: The Open Source CFD Toolbox           |
|  \\    /   O peration    | Version:  7                                     |
|   \\  /    A nd          | Web:      http://www.OpenFOAM.com               |
|    \\/     M anipulation |                                                 |
\*---------------------------------------------------------------------------*/

FoamFile
{
    version     2.0;
    format      ascii;
    class       dictionary;
    object      Y_HNO_table;
}

Y_HNO_table
2
(
101
(
1
(
101
(
 2.50980683e-13
 2.50980683e-13
 2.50980683e-13
 2.50980683e-13
 2.50980683e-13
 2.50980683e-13
 2.50980683e-13
 2.50980683e-13
 2.50980683e-13
 2.50980683e-13
 2.50980683e-13
 2.50980683e-13
 2.50980683e-13
 2.50980683e-13
 2.50980683e-13
 2.50980683e-13
 2.50980683e-13
 2.50980683e-13
 2.50980683e-13
 2.50980683e-13
 2.50980683e-13
 2.50980683e-13
 2.50980683e-13
 2.50980683e-13
 2.50980683e-13
 2.50980683e-13
 2.50980683e-13
 2.50980683e-13
 2.50980683e-13
 2.50980683e-13
 2.50980683e-13
 2.50980683e-13
 2.50980683e-13
 2.50980683e-13
 2.50980683e-13
 2.50980683e-13
 2.50980683e-13
 2.50980683e-13
 2.50980683e-13
 2.50980683e-13
 2.50980683e-13
 2.50980683e-13
 2.50980683e-13
 2.50980683e-13
 2.50980683e-13
 1.40318473e-10
 1.40318473e-10
 1.97828619e-10
 1.97828619e-10
 1.97828619e-10
 1.97828619e-10
 1.97828619e-10
 1.97828619e-10
 1.97828619e-10
 1.97828619e-10
 1.97828619e-10
 1.97828619e-10
 1.97828619e-10
 1.97828619e-10
 1.97828619e-10
 1.97828619e-10
 1.97828619e-10
 1.97828619e-10
 1.46193529e-10
 1.46193529e-10
 1.46193529e-10
 1.46193529e-10
 1.46193529e-10
 1.46193529e-10
 1.46193529e-10
 1.46193529e-10
 1.46193529e-10
 1.46193529e-10
 1.46193529e-10
 1.46193529e-10
 5.70720411e-11
 5.70720411e-11
 5.70720411e-11
 5.70720411e-11
 5.70720411e-11
 5.70720411e-11
 5.70720411e-11
 4.61095310e-11
 4.61095310e-11
 4.61095310e-11
 4.61095310e-11
 4.61095310e-11
 4.61095310e-11
 2.83597243e-11
 2.83597243e-11
 2.83597243e-11
 2.83597243e-11
 2.83597243e-11
 2.83597243e-11
 2.83597243e-11
 5.24111668e-12
 5.24111668e-12
 5.24111668e-12
 5.24111668e-12
 5.24111668e-12
 7.01029296e-14
)
)
1
(
101
(
 1.37735656e-11
 1.37735656e-11
 1.37735656e-11
 1.37735656e-11
 1.37735656e-11
 1.37735656e-11
 1.37735656e-11
 1.37735656e-11
 1.37735656e-11
 1.37735656e-11
 1.37735656e-11
 1.37735656e-11
 1.37735656e-11
 1.37735656e-11
 1.37735656e-11
 1.37735656e-11
 1.37735656e-11
 1.37735656e-11
 1.37735656e-11
 1.37735656e-11
 1.37735656e-11
 1.37735656e-11
 1.37735656e-11
 1.37735656e-11
 1.37735656e-11
 1.37735656e-11
 1.37735656e-11
 1.37735656e-11
 1.37735656e-11
 1.37735656e-11
 1.37735656e-11
 1.37735656e-11
 1.37735656e-11
 1.37735656e-11
 1.37735656e-11
 1.37735656e-11
 1.37735656e-11
 1.37735656e-11
 1.37735656e-11
 1.37735656e-11
 1.37735656e-11
 1.37735656e-11
 1.37735656e-11
 1.37735656e-11
 1.37735656e-11
 1.40318473e-10
 1.40318473e-10
 1.40318473e-10
 1.97828619e-10
 1.97828619e-10
 1.97828619e-10
 1.97828619e-10
 1.97828619e-10
 1.97828619e-10
 1.97828619e-10
 1.97828619e-10
 1.97828619e-10
 1.97828619e-10
 1.97828619e-10
 1.97828619e-10
 1.97828619e-10
 1.97828619e-10
 1.97828619e-10
 1.97828619e-10
 1.97828619e-10
 1.46193529e-10
 1.46193529e-10
 1.46193529e-10
 1.46193529e-10
 1.46193529e-10
 1.46193529e-10
 1.46193529e-10
 1.46193529e-10
 1.46193529e-10
 1.46193529e-10
 1.46193529e-10
 1.46193529e-10
 5.70720411e-11
 5.70720411e-11
 5.70720411e-11
 5.70720411e-11
 5.70720411e-11
 5.70720411e-11
 4.61095310e-11
 4.61095310e-11
 4.61095310e-11
 4.61095310e-11
 4.61095310e-11
 4.61095310e-11
 4.61095310e-11
 2.83597243e-11
 2.83597243e-11
 2.83597243e-11
 2.83597243e-11
 2.83597243e-11
 2.83597243e-11
 1.40122878e-11
 5.24111668e-12
 5.24111668e-12
 5.24111668e-12
 2.19093023e-12
)
)
1
(
101
(
 3.52356066e-11
 3.52356066e-11
 3.52356066e-11
 3.52356066e-11
 3.52356066e-11
 3.52356066e-11
 3.52356066e-11
 3.52356066e-11
 3.52356066e-11
 3.52356066e-11
 3.52356066e-11
 3.52356066e-11
 3.52356066e-11
 3.52356066e-11
 3.52356066e-11
 3.52356066e-11
 3.52356066e-11
 3.52356066e-11
 3.52356066e-11
 3.52356066e-11
 3.52356066e-11
 3.52356066e-11
 3.52356066e-11
 3.52356066e-11
 3.52356066e-11
 3.52356066e-11
 3.52356066e-11
 3.52356066e-11
 3.52356066e-11
 3.52356066e-11
 3.52356066e-11
 3.52356066e-11
 3.52356066e-11
 3.52356066e-11
 3.52356066e-11
 3.52356066e-11
 3.52356066e-11
 3.52356066e-11
 3.52356066e-11
 3.52356066e-11
 3.52356066e-11
 3.52356066e-11
 3.52356066e-11
 3.52356066e-11
 1.40318473e-10
 1.40318473e-10
 1.40318473e-10
 1.40318473e-10
 1.40318473e-10
 1.40318473e-10
 1.97828619e-10
 1.97828619e-10
 1.97828619e-10
 1.97828619e-10
 1.97828619e-10
 1.97828619e-10
 1.97828619e-10
 1.97828619e-10
 1.97828619e-10
 1.97828619e-10
 1.97828619e-10
 1.97828619e-10
 1.97828619e-10
 1.97828619e-10
 1.97828619e-10
 1.97828619e-10
 1.46193529e-10
 1.46193529e-10
 1.46193529e-10
 1.46193529e-10
 1.46193529e-10
 1.46193529e-10
 1.46193529e-10
 1.46193529e-10
 1.46193529e-10
 1.46193529e-10
 1.46193529e-10
 1.46193529e-10
 5.70720411e-11
 5.70720411e-11
 5.70720411e-11
 5.70720411e-11
 5.70720411e-11
 5.70720411e-11
 5.70720411e-11
 4.61095310e-11
 4.61095310e-11
 4.61095310e-11
 4.61095310e-11
 4.61095310e-11
 4.61095310e-11
 2.83597243e-11
 2.83597243e-11
 2.83597243e-11
 2.83597243e-11
 2.83597243e-11
 2.83597243e-11
 1.40122878e-11
 1.40122878e-11
 7.04993684e-12
 7.04993684e-12
)
)
1
(
101
(
 5.26136535e-11
 5.26136535e-11
 5.26136535e-11
 5.26136535e-11
 5.26136535e-11
 5.26136535e-11
 5.26136535e-11
 5.26136535e-11
 5.26136535e-11
 5.26136535e-11
 5.26136535e-11
 5.26136535e-11
 5.26136535e-11
 5.26136535e-11
 5.26136535e-11
 5.26136535e-11
 5.26136535e-11
 5.26136535e-11
 5.26136535e-11
 5.26136535e-11
 5.26136535e-11
 5.26136535e-11
 5.26136535e-11
 5.26136535e-11
 5.26136535e-11
 5.26136535e-11
 5.26136535e-11
 5.26136535e-11
 5.26136535e-11
 5.26136535e-11
 5.26136535e-11
 5.26136535e-11
 5.26136535e-11
 5.26136535e-11
 5.26136535e-11
 5.26136535e-11
 5.26136535e-11
 5.26136535e-11
 5.26136535e-11
 5.26136535e-11
 5.26136535e-11
 5.26136535e-11
 5.26136535e-11
 5.26136535e-11
 1.27671950e-10
 1.40318473e-10
 1.40318473e-10
 1.40318473e-10
 1.40318473e-10
 1.40318473e-10
 1.40318473e-10
 1.97828619e-10
 1.97828619e-10
 1.97828619e-10
 1.97828619e-10
 1.97828619e-10
 1.97828619e-10
 1.97828619e-10
 1.97828619e-10
 1.97828619e-10
 1.97828619e-10
 1.97828619e-10
 1.97828619e-10
 1.97828619e-10
 1.97828619e-10
 1.97828619e-10
 1.97828619e-10
 1.46193529e-10
 1.46193529e-10
 1.46193529e-10
 1.46193529e-10
 1.46193529e-10
 1.46193529e-10
 1.46193529e-10
 1.46193529e-10
 1.46193529e-10
 1.46193529e-10
 1.46193529e-10
 1.46193529e-10
 6.97963299e-11
 5.70720411e-11
 5.70720411e-11
 5.70720411e-11
 5.70720411e-11
 5.70720411e-11
 5.70720411e-11
 4.61095310e-11
 4.61095310e-11
 4.61095310e-11
 4.61095310e-11
 4.61095310e-11
 4.61095310e-11
 4.61095310e-11
 2.83597243e-11
 2.83597243e-11
 2.83597243e-11
 2.83597243e-11
 2.83597243e-11
 1.40122878e-11
 2.75836351e-12
 2.75836351e-12
)
)
1
(
101
(
 8.67681792e-11
 8.67681792e-11
 8.67681792e-11
 8.67681792e-11
 8.67681792e-11
 8.67681792e-11
 8.67681792e-11
 8.67681792e-11
 8.67681792e-11
 8.67681792e-11
 8.67681792e-11
 8.67681792e-11
 8.67681792e-11
 8.67681792e-11
 8.67681792e-11
 8.67681792e-11
 8.67681792e-11
 8.67681792e-11
 8.67681792e-11
 8.67681792e-11
 8.67681792e-11
 8.67681792e-11
 8.67681792e-11
 8.67681792e-11
 8.67681792e-11
 8.67681792e-11
 8.67681792e-11
 8.67681792e-11
 8.67681792e-11
 8.67681792e-11
 8.67681792e-11
 8.67681792e-11
 8.67681792e-11
 8.67681792e-11
 8.67681792e-11
 8.67681792e-11
 8.67681792e-11
 8.67681792e-11
 8.67681792e-11
 8.67681792e-11
 8.67681792e-11
 8.67681792e-11
 8.67681792e-11
 8.67681792e-11
 1.27671950e-10
 1.27671950e-10
 1.27671950e-10
 1.40318473e-10
 1.40318473e-10
 1.40318473e-10
 1.40318473e-10
 1.40318473e-10
 1.40318473e-10
 1.97828619e-10
 1.97828619e-10
 1.97828619e-10
 1.97828619e-10
 1.97828619e-10
 1.97828619e-10
 1.97828619e-10
 1.97828619e-10
 1.97828619e-10
 1.97828619e-10
 1.97828619e-10
 1.97828619e-10
 1.97828619e-10
 1.97828619e-10
 1.97828619e-10
 1.46193529e-10
 1.46193529e-10
 1.46193529e-10
 1.46193529e-10
 1.46193529e-10
 1.46193529e-10
 1.46193529e-10
 1.46193529e-10
 1.46193529e-10
 1.46193529e-10
 1.46193529e-10
 1.46193529e-10
 6.97963299e-11
 5.70720411e-11
 5.70720411e-11
 5.70720411e-11
 5.70720411e-11
 5.70720411e-11
 5.70720411e-11
 5.70720411e-11
 4.61095310e-11
 4.61095310e-11
 4.61095310e-11
 4.61095310e-11
 4.61095310e-11
 4.61095310e-11
 2.07756169e-11
 2.83597243e-11
 2.83597243e-11
 2.83597243e-11
 1.06569938e-11
 1.06569938e-11
 2.75836351e-12
)
)
1
(
101
(
 1.13733910e-10
 1.13733910e-10
 1.13733910e-10
 1.13733910e-10
 1.13733910e-10
 1.13733910e-10
 1.13733910e-10
 1.13733910e-10
 1.13733910e-10
 1.13733910e-10
 1.13733910e-10
 1.13733910e-10
 1.13733910e-10
 1.13733910e-10
 1.13733910e-10
 1.13733910e-10
 1.13733910e-10
 1.13733910e-10
 1.13733910e-10
 1.13733910e-10
 1.13733910e-10
 1.13733910e-10
 1.13733910e-10
 1.13733910e-10
 1.13733910e-10
 1.13733910e-10
 1.13733910e-10
 1.13733910e-10
 1.13733910e-10
 1.13733910e-10
 1.13733910e-10
 1.13733910e-10
 1.13733910e-10
 1.13733910e-10
 1.13733910e-10
 1.13733910e-10
 1.13733910e-10
 1.13733910e-10
 1.13733910e-10
 1.13733910e-10
 1.13733910e-10
 1.13733910e-10
 1.13884629e-09
 1.27671950e-10
 1.27671950e-10
 1.27671950e-10
 1.27671950e-10
 1.27671950e-10
 1.40318473e-10
 1.40318473e-10
 1.40318473e-10
 1.40318473e-10
 1.40318473e-10
 1.40318473e-10
 1.97828619e-10
 1.97828619e-10
 1.97828619e-10
 1.97828619e-10
 1.97828619e-10
 1.97828619e-10
 1.97828619e-10
 1.97828619e-10
 1.97828619e-10
 1.97828619e-10
 1.97828619e-10
 1.97828619e-10
 1.97828619e-10
 1.97828619e-10
 1.97828619e-10
 1.97828619e-10
 1.46193529e-10
 1.46193529e-10
 1.46193529e-10
 1.46193529e-10
 1.46193529e-10
 1.46193529e-10
 1.46193529e-10
 1.46193529e-10
 1.46193529e-10
 1.46193529e-10
 1.46193529e-10
 6.97963299e-11
 6.97963299e-11
 5.70720411e-11
 5.70720411e-11
 5.70720411e-11
 5.70720411e-11
 5.70720411e-11
 5.70720411e-11
 4.61095310e-11
 4.61095310e-11
 4.61095310e-11
 4.61095310e-11
 4.61095310e-11
 4.61095310e-11
 2.07756169e-11
 2.07756169e-11
 1.81198459e-11
 1.81198459e-11
 1.06569938e-11
 1.06569938e-11
)
)
1
(
101
(
 1.39701271e-10
 1.39701271e-10
 1.39701271e-10
 1.39701271e-10
 1.39701271e-10
 1.39701271e-10
 1.39701271e-10
 1.39701271e-10
 1.39701271e-10
 1.39701271e-10
 1.39701271e-10
 1.39701271e-10
 1.39701271e-10
 1.39701271e-10
 1.39701271e-10
 1.39701271e-10
 1.39701271e-10
 1.39701271e-10
 1.39701271e-10
 1.39701271e-10
 1.39701271e-10
 1.39701271e-10
 1.39701271e-10
 1.39701271e-10
 1.39701271e-10
 1.39701271e-10
 1.39701271e-10
 1.39701271e-10
 1.39701271e-10
 1.39701271e-10
 1.39701271e-10
 1.39701271e-10
 1.39701271e-10
 1.13884629e-09
 1.13884629e-09
 1.13884629e-09
 1.13884629e-09
 1.13884629e-09
 1.13884629e-09
 1.13884629e-09
 1.13884629e-09
 1.13884629e-09
 1.13884629e-09
 1.27671950e-10
 1.27671950e-10
 1.27671950e-10
 1.27671950e-10
 1.27671950e-10
 1.27671950e-10
 1.40318473e-10
 1.40318473e-10
 1.40318473e-10
 1.40318473e-10
 1.40318473e-10
 1.40318473e-10
 1.40318473e-10
 1.97828619e-10
 1.97828619e-10
 1.97828619e-10
 1.97828619e-10
 1.97828619e-10
 1.97828619e-10
 1.97828619e-10
 1.97828619e-10
 1.97828619e-10
 1.97828619e-10
 1.97828619e-10
 1.97828619e-10
 1.97828619e-10
 1.97828619e-10
 1.97828619e-10
 1.46193529e-10
 1.46193529e-10
 1.46193529e-10
 1.46193529e-10
 1.46193529e-10
 1.46193529e-10
 1.46193529e-10
 1.46193529e-10
 1.46193529e-10
 1.46193529e-10
 1.46193529e-10
 6.97963299e-11
 6.97963299e-11
 5.70720411e-11
 5.70720411e-11
 5.70720411e-11
 5.70720411e-11
 5.70720411e-11
 5.70720411e-11
 5.70720411e-11
 4.61095310e-11
 4.61095310e-11
 4.61095310e-11
 4.61095310e-11
 4.61095310e-11
 2.07756169e-11
 2.07756169e-11
 1.81198459e-11
 1.81198459e-11
 1.06569938e-11
)
)
1
(
101
(
 2.00559076e-10
 2.00559076e-10
 2.00559076e-10
 2.00559076e-10
 2.00559076e-10
 2.00559076e-10
 2.00559076e-10
 2.00559076e-10
 2.00559076e-10
 2.00559076e-10
 2.00559076e-10
 2.00559076e-10
 2.00559076e-10
 2.00559076e-10
 2.00559076e-10
 2.00559076e-10
 2.00559076e-10
 2.00559076e-10
 2.00559076e-10
 2.00559076e-10
 2.00559076e-10
 2.00559076e-10
 2.00559076e-10
 2.00559076e-10
 2.00559076e-10
 2.00559076e-10
 1.13884629e-09
 1.13884629e-09
 1.13884629e-09
 1.13884629e-09
 1.13884629e-09
 1.13884629e-09
 1.13884629e-09
 1.13884629e-09
 1.13884629e-09
 1.13884629e-09
 1.13884629e-09
 1.13884629e-09
 1.13884629e-09
 1.13884629e-09
 1.13884629e-09
 1.13884629e-09
 1.13884629e-09
 1.27671950e-10
 1.27671950e-10
 1.27671950e-10
 1.27671950e-10
 1.27671950e-10
 1.27671950e-10
 1.27671950e-10
 1.40318473e-10
 1.40318473e-10
 1.40318473e-10
 1.40318473e-10
 1.40318473e-10
 1.40318473e-10
 1.40318473e-10
 1.97828619e-10
 1.97828619e-10
 1.97828619e-10
 1.97828619e-10
 1.97828619e-10
 1.97828619e-10
 1.97828619e-10
 1.97828619e-10
 1.97828619e-10
 1.97828619e-10
 1.97828619e-10
 1.97828619e-10
 1.97828619e-10
 1.97828619e-10
 1.97828619e-10
 1.46193529e-10
 1.46193529e-10
 1.46193529e-10
 1.46193529e-10
 1.46193529e-10
 1.46193529e-10
 1.46193529e-10
 1.46193529e-10
 1.46193529e-10
 1.46193529e-10
 1.46193529e-10
 6.97963299e-11
 6.97963299e-11
 6.97963299e-11
 5.70720411e-11
 5.70720411e-11
 5.70720411e-11
 5.70720411e-11
 5.70720411e-11
 5.70720411e-11
 4.31927781e-11
 4.61095310e-11
 4.61095310e-11
 4.61095310e-11
 2.27420206e-11
 2.27420206e-11
 2.27420206e-11
 1.81198459e-11
 1.81198459e-11
)
)
1
(
101
(
 2.26632211e-10
 2.26632211e-10
 2.26632211e-10
 2.26632211e-10
 2.26632211e-10
 2.26632211e-10
 2.26632211e-10
 2.26632211e-10
 2.26632211e-10
 2.26632211e-10
 2.26632211e-10
 2.26632211e-10
 2.26632211e-10
 2.26632211e-10
 2.26632211e-10
 2.26632211e-10
 2.26632211e-10
 2.26632211e-10
 2.26632211e-10
 1.13884629e-09
 1.13884629e-09
 1.13884629e-09
 1.13884629e-09
 1.13884629e-09
 1.13884629e-09
 1.13884629e-09
 1.13884629e-09
 1.13884629e-09
 1.13884629e-09
 1.13884629e-09
 1.13884629e-09
 1.13884629e-09
 1.13884629e-09
 1.13884629e-09
 1.13884629e-09
 1.13884629e-09
 1.13884629e-09
 1.13884629e-09
 1.13884629e-09
 1.13884629e-09
 1.13884629e-09
 1.13884629e-09
 1.27671950e-10
 1.27671950e-10
 1.27671950e-10
 1.27671950e-10
 1.27671950e-10
 1.27671950e-10
 1.27671950e-10
 1.27671950e-10
 1.27671950e-10
 1.40318473e-10
 1.40318473e-10
 1.40318473e-10
 1.40318473e-10
 1.40318473e-10
 1.40318473e-10
 1.40318473e-10
 1.40318473e-10
 1.97828619e-10
 1.97828619e-10
 1.97828619e-10
 1.97828619e-10
 1.97828619e-10
 1.97828619e-10
 1.97828619e-10
 1.97828619e-10
 1.97828619e-10
 1.97828619e-10
 1.97828619e-10
 1.97828619e-10
 1.97828619e-10
 1.97828619e-10
 1.46193529e-10
 1.46193529e-10
 1.46193529e-10
 1.46193529e-10
 1.46193529e-10
 1.46193529e-10
 1.46193529e-10
 1.46193529e-10
 1.46193529e-10
 1.46193529e-10
 1.46193529e-10
 6.97963299e-11
 6.97963299e-11
 6.97963299e-11
 5.70720411e-11
 5.70720411e-11
 5.70720411e-11
 5.70720411e-11
 5.70720411e-11
 5.70720411e-11
 4.31927781e-11
 4.31927781e-11
 2.17304493e-11
 2.17304493e-11
 2.27420206e-11
 2.27420206e-11
 2.27420206e-11
 2.27420206e-11
)
)
1
(
101
(
 2.89623414e-10
 2.89623414e-10
 2.89623414e-10
 2.89623414e-10
 2.89623414e-10
 2.89623414e-10
 2.89623414e-10
 2.89623414e-10
 2.89623414e-10
 2.89623414e-10
 2.89623414e-10
 2.89623414e-10
 2.89623414e-10
 2.89623414e-10
 1.13884629e-09
 1.13884629e-09
 1.13884629e-09
 1.13884629e-09
 1.13884629e-09
 1.13884629e-09
 1.13884629e-09
 1.13884629e-09
 1.13884629e-09
 1.13884629e-09
 1.13884629e-09
 1.13884629e-09
 1.13884629e-09
 1.13884629e-09
 1.13884629e-09
 1.13884629e-09
 1.13884629e-09
 1.13884629e-09
 1.13884629e-09
 1.13884629e-09
 1.13884629e-09
 1.13884629e-09
 1.13884629e-09
 1.13884629e-09
 1.13884629e-09
 1.13884629e-09
 1.13884629e-09
 1.13884629e-09
 1.27671950e-10
 1.27671950e-10
 1.27671950e-10
 1.27671950e-10
 1.27671950e-10
 1.27671950e-10
 1.27671950e-10
 1.27671950e-10
 1.27671950e-10
 1.27671950e-10
 1.40318473e-10
 1.40318473e-10
 1.40318473e-10
 1.40318473e-10
 1.40318473e-10
 1.40318473e-10
 1.40318473e-10
 1.40318473e-10
 1.97828619e-10
 1.97828619e-10
 1.97828619e-10
 1.97828619e-10
 1.97828619e-10
 1.97828619e-10
 1.97828619e-10
 1.97828619e-10
 1.97828619e-10
 1.97828619e-10
 1.97828619e-10
 1.97828619e-10
 1.97828619e-10
 1.97828619e-10
 1.97828619e-10
 1.46193529e-10
 1.46193529e-10
 1.46193529e-10
 1.46193529e-10
 1.46193529e-10
 1.46193529e-10
 1.46193529e-10
 1.46193529e-10
 1.46193529e-10
 1.46193529e-10
 6.97963299e-11
 6.97963299e-11
 6.97963299e-11
 6.97963299e-11
 5.70720411e-11
 5.70720411e-11
 5.70720411e-11
 5.70720411e-11
 5.70720411e-11
 4.31927781e-11
 4.31927781e-11
 2.17304493e-11
 2.17304493e-11
 2.27420206e-11
 2.27420206e-11
 2.27420206e-11
)
)
1
(
101
(
 3.46179699e-10
 3.46179699e-10
 3.46179699e-10
 3.46179699e-10
 3.46179699e-10
 3.46179699e-10
 3.46179699e-10
 3.46179699e-10
 3.46179699e-10
 1.13884629e-09
 1.13884629e-09
 1.13884629e-09
 1.13884629e-09
 1.13884629e-09
 1.13884629e-09
 1.13884629e-09
 1.13884629e-09
 1.13884629e-09
 1.13884629e-09
 1.13884629e-09
 1.13884629e-09
 1.13884629e-09
 1.13884629e-09
 1.13884629e-09
 1.13884629e-09
 1.13884629e-09
 1.13884629e-09
 1.13884629e-09
 1.13884629e-09
 1.13884629e-09
 1.13884629e-09
 1.13884629e-09
 1.13884629e-09
 1.13884629e-09
 1.13884629e-09
 1.13884629e-09
 1.13884629e-09
 1.13884629e-09
 1.13884629e-09
 1.13884629e-09
 1.13884629e-09
 1.13884629e-09
 1.27671950e-10
 1.27671950e-10
 1.27671950e-10
 1.27671950e-10
 1.27671950e-10
 1.27671950e-10
 1.27671950e-10
 1.27671950e-10
 1.27671950e-10
 1.27671950e-10
 1.27671950e-10
 1.27671950e-10
 1.40318473e-10
 1.40318473e-10
 1.40318473e-10
 1.40318473e-10
 1.40318473e-10
 1.40318473e-10
 1.40318473e-10
 1.40318473e-10
 1.97828619e-10
 1.97828619e-10
 1.97828619e-10
 1.97828619e-10
 1.97828619e-10
 1.97828619e-10
 1.97828619e-10
 1.97828619e-10
 1.97828619e-10
 1.97828619e-10
 1.97828619e-10
 1.97828619e-10
 1.97828619e-10
 1.97828619e-10
 1.46193529e-10
 1.46193529e-10
 1.46193529e-10
 1.46193529e-10
 1.46193529e-10
 1.46193529e-10
 1.46193529e-10
 1.46193529e-10
 1.46193529e-10
 1.46193529e-10
 6.97963299e-11
 6.97963299e-11
 6.97963299e-11
 6.97963299e-11
 5.11152606e-11
 5.70720411e-11
 5.70720411e-11
 5.70720411e-11
 5.70720411e-11
 4.31927781e-11
 4.31927781e-11
 2.17304493e-11
 2.17304493e-11
 2.27420206e-11
 2.27420206e-11
)
)
1
(
101
(
 3.81726768e-10
 3.81726768e-10
 3.81726768e-10
 3.81726768e-10
 3.81726768e-10
 3.81726768e-10
 1.13884629e-09
 1.13884629e-09
 1.13884629e-09
 1.13884629e-09
 1.13884629e-09
 1.13884629e-09
 1.13884629e-09
 1.13884629e-09
 1.13884629e-09
 1.13884629e-09
 1.13884629e-09
 1.13884629e-09
 1.13884629e-09
 1.13884629e-09
 1.13884629e-09
 1.13884629e-09
 1.13884629e-09
 1.13884629e-09
 1.13884629e-09
 1.13884629e-09
 1.13884629e-09
 1.13884629e-09
 1.13884629e-09
 1.13884629e-09
 1.13884629e-09
 1.13884629e-09
 1.13884629e-09
 1.13884629e-09
 1.13884629e-09
 1.13884629e-09
 1.13884629e-09
 1.13884629e-09
 1.13884629e-09
 1.13884629e-09
 1.13884629e-09
 1.13884629e-09
 1.27671950e-10
 1.27671950e-10
 1.27671950e-10
 1.27671950e-10
 1.27671950e-10
 1.27671950e-10
 1.27671950e-10
 1.27671950e-10
 1.27671950e-10
 1.27671950e-10
 1.27671950e-10
 1.27671950e-10
 1.27671950e-10
 1.40318473e-10
 1.40318473e-10
 1.40318473e-10
 1.40318473e-10
 1.40318473e-10
 1.40318473e-10
 1.40318473e-10
 1.40318473e-10
 1.97828619e-10
 1.97828619e-10
 1.97828619e-10
 1.97828619e-10
 1.97828619e-10
 1.97828619e-10
 1.97828619e-10
 1.97828619e-10
 1.97828619e-10
 1.97828619e-10
 1.97828619e-10
 1.97828619e-10
 1.97828619e-10
 1.97828619e-10
 1.46193529e-10
 1.46193529e-10
 1.46193529e-10
 1.46193529e-10
 1.46193529e-10
 1.46193529e-10
 1.46193529e-10
 1.46193529e-10
 1.46193529e-10
 1.46193529e-10
 6.97963299e-11
 6.97963299e-11
 6.97963299e-11
 6.97963299e-11
 5.11152606e-11
 5.11152606e-11
 2.97641922e-11
 2.97641922e-11
 2.97641922e-11
 4.31927781e-11
 4.31927781e-11
 2.17304493e-11
 2.17304493e-11
 2.27420206e-11
)
)
1
(
101
(
 4.93734947e-10
 4.93734947e-10
 4.93734947e-10
 1.13884629e-09
 1.13884629e-09
 1.13884629e-09
 1.13884629e-09
 1.13884629e-09
 1.13884629e-09
 1.13884629e-09
 1.13884629e-09
 1.13884629e-09
 1.13884629e-09
 1.13884629e-09
 1.13884629e-09
 1.13884629e-09
 1.13884629e-09
 1.13884629e-09
 1.13884629e-09
 1.13884629e-09
 1.13884629e-09
 1.13884629e-09
 1.13884629e-09
 1.13884629e-09
 1.13884629e-09
 1.13884629e-09
 1.13884629e-09
 1.13884629e-09
 1.13884629e-09
 1.13884629e-09
 1.13884629e-09
 1.13884629e-09
 1.13884629e-09
 1.13884629e-09
 1.13884629e-09
 1.13884629e-09
 1.13884629e-09
 1.13884629e-09
 1.13884629e-09
 1.13884629e-09
 1.13884629e-09
 7.16846130e-11
 1.27671950e-10
 1.27671950e-10
 1.27671950e-10
 1.27671950e-10
 1.27671950e-10
 1.27671950e-10
 1.27671950e-10
 1.27671950e-10
 1.27671950e-10
 1.27671950e-10
 1.27671950e-10
 1.27671950e-10
 1.27671950e-10
 1.27671950e-10
 1.40318473e-10
 1.40318473e-10
 1.40318473e-10
 1.40318473e-10
 1.40318473e-10
 1.40318473e-10
 1.40318473e-10
 1.40318473e-10
 1.40318473e-10
 1.97828619e-10
 1.97828619e-10
 1.97828619e-10
 1.97828619e-10
 1.97828619e-10
 1.97828619e-10
 1.97828619e-10
 1.97828619e-10
 1.97828619e-10
 1.97828619e-10
 1.97828619e-10
 1.97828619e-10
 1.97828619e-10
 1.46193529e-10
 1.46193529e-10
 1.46193529e-10
 1.46193529e-10
 1.46193529e-10
 1.46193529e-10
 1.46193529e-10
 1.46193529e-10
 1.46193529e-10
 1.46193529e-10
 6.97963299e-11
 6.97963299e-11
 6.97963299e-11
 6.97963299e-11
 5.11152606e-11
 5.11152606e-11
 2.97641922e-11
 2.97641922e-11
 2.97641922e-11
 2.97641922e-11
 4.31927781e-11
 2.17304493e-11
 2.17304493e-11
)
)
1
(
101
(
 5.21401937e-10
 5.21401937e-10
 1.13884629e-09
 1.13884629e-09
 1.13884629e-09
 1.13884629e-09
 1.13884629e-09
 1.13884629e-09
 1.13884629e-09
 1.13884629e-09
 1.13884629e-09
 1.13884629e-09
 1.13884629e-09
 1.13884629e-09
 1.13884629e-09
 1.13884629e-09
 1.13884629e-09
 1.13884629e-09
 1.13884629e-09
 1.13884629e-09
 1.13884629e-09
 1.13884629e-09
 1.13884629e-09
 1.13884629e-09
 1.13884629e-09
 1.13884629e-09
 1.13884629e-09
 1.13884629e-09
 1.13884629e-09
 1.13884629e-09
 1.13884629e-09
 1.13884629e-09
 1.13884629e-09
 1.13884629e-09
 1.13884629e-09
 1.13884629e-09
 1.13884629e-09
 1.13884629e-09
 1.13884629e-09
 1.13884629e-09
 1.13884629e-09
 7.16846130e-11
 7.16846130e-11
 1.27671950e-10
 1.27671950e-10
 1.27671950e-10
 1.27671950e-10
 1.27671950e-10
 1.27671950e-10
 1.27671950e-10
 1.27671950e-10
 1.27671950e-10
 1.27671950e-10
 1.27671950e-10
 1.27671950e-10
 1.27671950e-10
 1.27671950e-10
 1.40318473e-10
 1.40318473e-10
 1.40318473e-10
 1.40318473e-10
 1.40318473e-10
 1.40318473e-10
 1.40318473e-10
 1.40318473e-10
 1.40318473e-10
 1.97828619e-10
 1.97828619e-10
 1.97828619e-10
 1.97828619e-10
 1.97828619e-10
 1.97828619e-10
 1.97828619e-10
 1.97828619e-10
 1.97828619e-10
 1.97828619e-10
 1.97828619e-10
 1.97828619e-10
 1.97828619e-10
 1.97828619e-10
 1.46193529e-10
 1.46193529e-10
 1.46193529e-10
 1.46193529e-10
 1.46193529e-10
 1.46193529e-10
 1.46193529e-10
 1.46193529e-10
 5.80422231e-11
 6.97963299e-11
 6.97963299e-11
 6.97963299e-11
 5.55085434e-12
 5.55085434e-12
 5.55085434e-12
 2.97641922e-11
 2.97641922e-11
 2.97641922e-11
 2.97641922e-11
 2.97641922e-11
 2.17304493e-11
)
)
1
(
101
(
 1.02003737e-10
 1.13884629e-09
 1.13884629e-09
 1.13884629e-09
 1.13884629e-09
 1.13884629e-09
 1.13884629e-09
 1.13884629e-09
 1.13884629e-09
 1.13884629e-09
 1.13884629e-09
 1.13884629e-09
 1.13884629e-09
 1.13884629e-09
 1.13884629e-09
 1.13884629e-09
 1.13884629e-09
 1.13884629e-09
 1.13884629e-09
 1.13884629e-09
 1.13884629e-09
 1.13884629e-09
 1.13884629e-09
 1.13884629e-09
 1.13884629e-09
 1.13884629e-09
 1.13884629e-09
 1.13884629e-09
 1.13884629e-09
 1.13884629e-09
 1.13884629e-09
 1.13884629e-09
 1.13884629e-09
 1.13884629e-09
 1.13884629e-09
 1.13884629e-09
 1.13884629e-09
 1.13884629e-09
 1.13884629e-09
 1.13884629e-09
 7.16846130e-11
 7.16846130e-11
 7.16846130e-11
 7.16846130e-11
 1.27671950e-10
 1.27671950e-10
 1.27671950e-10
 1.27671950e-10
 1.27671950e-10
 1.27671950e-10
 1.27671950e-10
 1.27671950e-10
 1.27671950e-10
 1.27671950e-10
 1.27671950e-10
 1.27671950e-10
 1.27671950e-10
 1.27671950e-10
 1.40318473e-10
 1.40318473e-10
 1.40318473e-10
 1.40318473e-10
 1.40318473e-10
 1.40318473e-10
 1.40318473e-10
 1.40318473e-10
 1.40318473e-10
 1.40318473e-10
 1.97828619e-10
 1.97828619e-10
 1.97828619e-10
 1.97828619e-10
 1.97828619e-10
 1.97828619e-10
 1.97828619e-10
 1.97828619e-10
 1.97828619e-10
 1.97828619e-10
 1.97828619e-10
 1.97828619e-10
 1.97828619e-10
 1.18222919e-10
 1.46193529e-10
 1.46193529e-10
 1.46193529e-10
 1.46193529e-10
 1.46193529e-10
 1.46193529e-10
 1.46193529e-10
 5.80422231e-11
 5.80422231e-11
 3.45941226e-11
 3.45941226e-11
 5.55085434e-12
 5.55085434e-12
 5.55085434e-12
 5.55085434e-12
 2.97641922e-11
 2.97641922e-11
 2.97641922e-11
 2.97641922e-11
)
)
1
(
101
(
 1.02003737e-10
 7.47596495e-10
 7.47596495e-10
 7.47596495e-10
 7.47596495e-10
 7.47596495e-10
 7.47596495e-10
 7.47596495e-10
 7.47596495e-10
 7.47596495e-10
 7.47596495e-10
 7.47596495e-10
 7.47596495e-10
 7.47596495e-10
 7.47596495e-10
 7.47596495e-10
 7.47596495e-10
 7.47596495e-10
 7.47596495e-10
 7.47596495e-10
 7.47596495e-10
 7.47596495e-10
 7.47596495e-10
 7.47596495e-10
 7.47596495e-10
 7.47596495e-10
 7.47596495e-10
 7.47596495e-10
 7.47596495e-10
 7.47596495e-10
 7.47596495e-10
 7.47596495e-10
 7.47596495e-10
 7.47596495e-10
 7.47596495e-10
 7.47596495e-10
 7.47596495e-10
 7.47596495e-10
 7.47596495e-10
 7.47596495e-10
 7.16846130e-11
 7.16846130e-11
 7.16846130e-11
 7.16846130e-11
 7.16846130e-11
 1.27671950e-10
 1.27671950e-10
 1.27671950e-10
 1.27671950e-10
 1.27671950e-10
 1.27671950e-10
 1.27671950e-10
 1.27671950e-10
 1.27671950e-10
 1.27671950e-10
 1.27671950e-10
 1.27671950e-10
 1.27671950e-10
 1.27671950e-10
 1.40318473e-10
 1.40318473e-10
 1.40318473e-10
 1.40318473e-10
 1.40318473e-10
 1.40318473e-10
 1.40318473e-10
 1.40318473e-10
 1.40318473e-10
 1.40318473e-10
 1.97828619e-10
 1.97828619e-10
 1.97828619e-10
 1.97828619e-10
 1.97828619e-10
 1.97828619e-10
 1.97828619e-10
 1.97828619e-10
 1.97828619e-10
 1.97828619e-10
 1.97828619e-10
 1.97828619e-10
 1.97828619e-10
 1.18222919e-10
 1.18222919e-10
 1.46193529e-10
 1.46193529e-10
 1.46193529e-10
 1.46193529e-10
 1.46193529e-10
 5.80422231e-11
 5.80422231e-11
 5.80422231e-11
 3.45941226e-11
 3.45941226e-11
 5.55085434e-12
 5.55085434e-12
 5.55085434e-12
 5.55085434e-12
 5.55085434e-12
 2.97641922e-11
 2.97641922e-11
)
)
1
(
101
(
 9.00740424e-10
 9.00740424e-10
 9.00740424e-10
 9.00740424e-10
 9.00740424e-10
 9.00740424e-10
 9.00740424e-10
 9.00740424e-10
 9.00740424e-10
 9.00740424e-10
 9.00740424e-10
 9.00740424e-10
 9.00740424e-10
 9.00740424e-10
 9.00740424e-10
 9.00740424e-10
 9.00740424e-10
 9.00740424e-10
 9.00740424e-10
 9.00740424e-10
 9.00740424e-10
 9.00740424e-10
 9.00740424e-10
 9.00740424e-10
 9.00740424e-10
 9.00740424e-10
 9.00740424e-10
 9.00740424e-10
 9.00740424e-10
 9.00740424e-10
 9.00740424e-10
 9.00740424e-10
 9.00740424e-10
 9.00740424e-10
 9.00740424e-10
 9.00740424e-10
 9.00740424e-10
 9.00740424e-10
 9.00740424e-10
 9.00740424e-10
 7.16846130e-11
 7.16846130e-11
 7.16846130e-11
 7.16846130e-11
 7.16846130e-11
 7.16846130e-11
 1.27671950e-10
 1.27671950e-10
 1.27671950e-10
 1.27671950e-10
 1.27671950e-10
 1.27671950e-10
 1.27671950e-10
 1.27671950e-10
 1.27671950e-10
 1.27671950e-10
 1.27671950e-10
 1.27671950e-10
 1.27671950e-10
 1.27671950e-10
 1.27671950e-10
 1.40318473e-10
 1.40318473e-10
 1.40318473e-10
 1.40318473e-10
 1.40318473e-10
 1.40318473e-10
 1.40318473e-10
 1.40318473e-10
 1.40318473e-10
 1.40318473e-10
 1.97828619e-10
 1.97828619e-10
 1.97828619e-10
 1.97828619e-10
 1.97828619e-10
 1.97828619e-10
 1.97828619e-10
 1.97828619e-10
 1.97828619e-10
 1.97828619e-10
 1.97828619e-10
 1.97828619e-10
 1.18222919e-10
 1.18222919e-10
 1.18222919e-10
 1.46193529e-10
 1.46193529e-10
 1.46193529e-10
 1.46193529e-10
 5.80422231e-11
 5.80422231e-11
 5.80422231e-11
 3.45941226e-11
 3.45941226e-11
 5.55085434e-12
 5.55085434e-12
 5.55085434e-12
 5.55085434e-12
 5.55085434e-12
 5.55085434e-12
)
)
1
(
101
(
 1.10761863e-09
 1.10761863e-09
 1.10761863e-09
 1.10761863e-09
 1.10761863e-09
 1.10761863e-09
 1.10761863e-09
 1.10761863e-09
 1.10761863e-09
 1.10761863e-09
 1.10761863e-09
 1.10761863e-09
 1.10761863e-09
 1.10761863e-09
 1.10761863e-09
 1.10761863e-09
 1.10761863e-09
 1.10761863e-09
 1.10761863e-09
 1.10761863e-09
 1.10761863e-09
 1.10761863e-09
 1.10761863e-09
 1.10761863e-09
 1.10761863e-09
 1.10761863e-09
 1.10761863e-09
 1.10761863e-09
 1.10761863e-09
 1.10761863e-09
 1.10761863e-09
 1.10761863e-09
 1.10761863e-09
 1.10761863e-09
 1.10761863e-09
 1.10761863e-09
 1.10761863e-09
 1.10761863e-09
 1.10761863e-09
 7.16846130e-11
 7.16846130e-11
 7.16846130e-11
 7.16846130e-11
 7.16846130e-11
 7.16846130e-11
 7.16846130e-11
 7.16846130e-11
 7.16846130e-11
 1.27671950e-10
 1.27671950e-10
 1.27671950e-10
 1.27671950e-10
 1.27671950e-10
 1.27671950e-10
 1.27671950e-10
 1.27671950e-10
 1.27671950e-10
 1.27671950e-10
 1.27671950e-10
 1.27671950e-10
 1.27671950e-10
 1.27671950e-10
 1.40318473e-10
 1.40318473e-10
 1.40318473e-10
 1.40318473e-10
 1.40318473e-10
 1.40318473e-10
 1.40318473e-10
 1.40318473e-10
 1.40318473e-10
 1.40318473e-10
 1.97828619e-10
 1.97828619e-10
 1.97828619e-10
 1.97828619e-10
 1.97828619e-10
 1.97828619e-10
 1.97828619e-10
 1.97828619e-10
 1.97828619e-10
 1.97828619e-10
 1.97828619e-10
 1.97828619e-10
 1.18222919e-10
 1.18222919e-10
 1.18222919e-10
 1.18222919e-10
 7.20542440e-11
 7.20542440e-11
 7.20542440e-11
 5.80422231e-11
 5.80422231e-11
 5.80422231e-11
 3.45941226e-11
 3.45941226e-11
 5.55085434e-12
 5.55085434e-12
 5.55085434e-12