/*--------------------------------*- C++ -*----------------------------------*\
| =========                 |                                                 |
| \\      /  F ield        | OpenFOAM: The Open Source CFD Toolbox           |
|  \\    /   O peration    | Version:  7                                     |
|   \\  /    A nd          | Web:      http://www.OpenFOAM.com               |
|    \\/     M anipulation |                                                 |
\*---------------------------------------------------------------------------*/

FoamFile
{
    version     2.0;
    format      ascii;
    class       dictionary;
    object      Y_HNCO_table;
}

Y_HNCO_table
2
(
101
(
1
(
101
(
 5.98253300e-13
 5.98253300e-13
 5.98253300e-13
 5.98253300e-13
 5.98253300e-13
 5.98253300e-13
 5.98253300e-13
 5.98253300e-13
 5.98253300e-13
 5.98253300e-13
 5.98253300e-13
 5.98253300e-13
 5.98253300e-13
 5.98253300e-13
 5.98253300e-13
 5.98253300e-13
 5.98253300e-13
 5.98253300e-13
 5.98253300e-13
 5.98253300e-13
 5.98253300e-13
 5.98253300e-13
 5.98253300e-13
 5.98253300e-13
 5.98253300e-13
 5.98253300e-13
 5.98253300e-13
 5.98253300e-13
 5.98253300e-13
 5.98253300e-13
 5.98253300e-13
 5.98253300e-13
 5.98253300e-13
 5.98253300e-13
 5.98253300e-13
 5.98253300e-13
 5.98253300e-13
 5.98253300e-13
 5.98253300e-13
 5.98253300e-13
 5.98253300e-13
 5.98253300e-13
 5.98253300e-13
 5.98253300e-13
 5.98253300e-13
 5.07280863e-06
 5.07280863e-06
 1.76029859e-06
 1.76029859e-06
 1.76029859e-06
 1.76029859e-06
 1.76029859e-06
 1.76029859e-06
 1.76029859e-06
 1.76029859e-06
 1.76029859e-06
 1.76029859e-06
 1.76029859e-06
 1.76029859e-06
 1.76029859e-06
 1.76029859e-06
 1.76029859e-06
 1.76029859e-06
 1.18847161e-06
 1.18847161e-06
 1.18847161e-06
 1.18847161e-06
 1.18847161e-06
 1.18847161e-06
 1.18847161e-06
 1.18847161e-06
 1.18847161e-06
 1.18847161e-06
 1.18847161e-06
 1.18847161e-06
 1.43149123e-06
 1.43149123e-06
 1.43149123e-06
 1.43149123e-06
 1.43149123e-06
 1.43149123e-06
 1.43149123e-06
 8.36238710e-07
 8.36238710e-07
 8.36238710e-07
 8.36238710e-07
 8.36238710e-07
 8.36238710e-07
 4.22702323e-07
 4.22702323e-07
 4.22702323e-07
 4.22702323e-07
 4.22702323e-07
 4.22702323e-07
 4.22702323e-07
 6.75243785e-08
 6.75243785e-08
 6.75243785e-08
 6.75243785e-08
 6.75243785e-08
 6.03672440e-10
)
)
1
(
101
(
 4.77942965e-11
 4.77942965e-11
 4.77942965e-11
 4.77942965e-11
 4.77942965e-11
 4.77942965e-11
 4.77942965e-11
 4.77942965e-11
 4.77942965e-11
 4.77942965e-11
 4.77942965e-11
 4.77942965e-11
 4.77942965e-11
 4.77942965e-11
 4.77942965e-11
 4.77942965e-11
 4.77942965e-11
 4.77942965e-11
 4.77942965e-11
 4.77942965e-11
 4.77942965e-11
 4.77942965e-11
 4.77942965e-11
 4.77942965e-11
 4.77942965e-11
 4.77942965e-11
 4.77942965e-11
 4.77942965e-11
 4.77942965e-11
 4.77942965e-11
 4.77942965e-11
 4.77942965e-11
 4.77942965e-11
 4.77942965e-11
 4.77942965e-11
 4.77942965e-11
 4.77942965e-11
 4.77942965e-11
 4.77942965e-11
 4.77942965e-11
 4.77942965e-11
 4.77942965e-11
 4.77942965e-11
 4.77942965e-11
 4.77942965e-11
 5.07280863e-06
 5.07280863e-06
 5.07280863e-06
 1.76029859e-06
 1.76029859e-06
 1.76029859e-06
 1.76029859e-06
 1.76029859e-06
 1.76029859e-06
 1.76029859e-06
 1.76029859e-06
 1.76029859e-06
 1.76029859e-06
 1.76029859e-06
 1.76029859e-06
 1.76029859e-06
 1.76029859e-06
 1.76029859e-06
 1.76029859e-06
 1.76029859e-06
 1.18847161e-06
 1.18847161e-06
 1.18847161e-06
 1.18847161e-06
 1.18847161e-06
 1.18847161e-06
 1.18847161e-06
 1.18847161e-06
 1.18847161e-06
 1.18847161e-06
 1.18847161e-06
 1.18847161e-06
 1.43149123e-06
 1.43149123e-06
 1.43149123e-06
 1.43149123e-06
 1.43149123e-06
 1.43149123e-06
 8.36238710e-07
 8.36238710e-07
 8.36238710e-07
 8.36238710e-07
 8.36238710e-07
 8.36238710e-07
 8.36238710e-07
 4.22702323e-07
 4.22702323e-07
 4.22702323e-07
 4.22702323e-07
 4.22702323e-07
 4.22702323e-07
 2.30555777e-07
 6.75243785e-08
 6.75243785e-08
 6.75243785e-08
 3.21415183e-08
)
)
1
(
101
(
 1.43187698e-10
 1.43187698e-10
 1.43187698e-10
 1.43187698e-10
 1.43187698e-10
 1.43187698e-10
 1.43187698e-10
 1.43187698e-10
 1.43187698e-10
 1.43187698e-10
 1.43187698e-10
 1.43187698e-10
 1.43187698e-10
 1.43187698e-10
 1.43187698e-10
 1.43187698e-10
 1.43187698e-10
 1.43187698e-10
 1.43187698e-10
 1.43187698e-10
 1.43187698e-10
 1.43187698e-10
 1.43187698e-10
 1.43187698e-10
 1.43187698e-10
 1.43187698e-10
 1.43187698e-10
 1.43187698e-10
 1.43187698e-10
 1.43187698e-10
 1.43187698e-10
 1.43187698e-10
 1.43187698e-10
 1.43187698e-10
 1.43187698e-10
 1.43187698e-10
 1.43187698e-10
 1.43187698e-10
 1.43187698e-10
 1.43187698e-10
 1.43187698e-10
 1.43187698e-10
 1.43187698e-10
 1.43187698e-10
 5.07280863e-06
 5.07280863e-06
 5.07280863e-06
 5.07280863e-06
 5.07280863e-06
 5.07280863e-06
 1.76029859e-06
 1.76029859e-06
 1.76029859e-06
 1.76029859e-06
 1.76029859e-06
 1.76029859e-06
 1.76029859e-06
 1.76029859e-06
 1.76029859e-06
 1.76029859e-06
 1.76029859e-06
 1.76029859e-06
 1.76029859e-06
 1.76029859e-06
 1.76029859e-06
 1.76029859e-06
 1.18847161e-06
 1.18847161e-06
 1.18847161e-06
 1.18847161e-06
 1.18847161e-06
 1.18847161e-06
 1.18847161e-06
 1.18847161e-06
 1.18847161e-06
 1.18847161e-06
 1.18847161e-06
 1.18847161e-06
 1.43149123e-06
 1.43149123e-06
 1.43149123e-06
 1.43149123e-06
 1.43149123e-06
 1.43149123e-06
 1.43149123e-06
 8.36238710e-07
 8.36238710e-07
 8.36238710e-07
 8.36238710e-07
 8.36238710e-07
 8.36238710e-07
 4.22702323e-07
 4.22702323e-07
 4.22702323e-07
 4.22702323e-07
 4.22702323e-07
 4.22702323e-07
 2.30555777e-07
 2.30555777e-07
 1.22670729e-07
 1.22670729e-07
)
)
1
(
101
(
 2.01316955e-10
 2.01316955e-10
 2.01316955e-10
 2.01316955e-10
 2.01316955e-10
 2.01316955e-10
 2.01316955e-10
 2.01316955e-10
 2.01316955e-10
 2.01316955e-10
 2.01316955e-10
 2.01316955e-10
 2.01316955e-10
 2.01316955e-10
 2.01316955e-10
 2.01316955e-10
 2.01316955e-10
 2.01316955e-10
 2.01316955e-10
 2.01316955e-10
 2.01316955e-10
 2.01316955e-10
 2.01316955e-10
 2.01316955e-10
 2.01316955e-10
 2.01316955e-10
 2.01316955e-10
 2.01316955e-10
 2.01316955e-10
 2.01316955e-10
 2.01316955e-10
 2.01316955e-10
 2.01316955e-10
 2.01316955e-10
 2.01316955e-10
 2.01316955e-10
 2.01316955e-10
 2.01316955e-10
 2.01316955e-10
 2.01316955e-10
 2.01316955e-10
 2.01316955e-10
 2.01316955e-10
 2.01316955e-10
 6.90997098e-06
 5.07280863e-06
 5.07280863e-06
 5.07280863e-06
 5.07280863e-06
 5.07280863e-06
 5.07280863e-06
 1.76029859e-06
 1.76029859e-06
 1.76029859e-06
 1.76029859e-06
 1.76029859e-06
 1.76029859e-06
 1.76029859e-06
 1.76029859e-06
 1.76029859e-06
 1.76029859e-06
 1.76029859e-06
 1.76029859e-06
 1.76029859e-06
 1.76029859e-06
 1.76029859e-06
 1.76029859e-06
 1.18847161e-06
 1.18847161e-06
 1.18847161e-06
 1.18847161e-06
 1.18847161e-06
 1.18847161e-06
 1.18847161e-06
 1.18847161e-06
 1.18847161e-06
 1.18847161e-06
 1.18847161e-06
 1.18847161e-06
 1.74456235e-06
 1.43149123e-06
 1.43149123e-06
 1.43149123e-06
 1.43149123e-06
 1.43149123e-06
 1.43149123e-06
 8.36238710e-07
 8.36238710e-07
 8.36238710e-07
 8.36238710e-07
 8.36238710e-07
 8.36238710e-07
 8.36238710e-07
 4.22702323e-07
 4.22702323e-07
 4.22702323e-07
 4.22702323e-07
 4.22702323e-07
 2.30555777e-07
 1.51308067e-07
 1.51308067e-07
)
)
1
(
101
(
 3.55348069e-10
 3.55348069e-10
 3.55348069e-10
 3.55348069e-10
 3.55348069e-10
 3.55348069e-10
 3.55348069e-10
 3.55348069e-10
 3.55348069e-10
 3.55348069e-10
 3.55348069e-10
 3.55348069e-10
 3.55348069e-10
 3.55348069e-10
 3.55348069e-10
 3.55348069e-10
 3.55348069e-10
 3.55348069e-10
 3.55348069e-10
 3.55348069e-10
 3.55348069e-10
 3.55348069e-10
 3.55348069e-10
 3.55348069e-10
 3.55348069e-10
 3.55348069e-10
 3.55348069e-10
 3.55348069e-10
 3.55348069e-10
 3.55348069e-10
 3.55348069e-10
 3.55348069e-10
 3.55348069e-10
 3.55348069e-10
 3.55348069e-10
 3.55348069e-10
 3.55348069e-10
 3.55348069e-10
 3.55348069e-10
 3.55348069e-10
 3.55348069e-10
 3.55348069e-10
 3.55348069e-10
 3.55348069e-10
 6.90997098e-06
 6.90997098e-06
 6.90997098e-06
 5.07280863e-06
 5.07280863e-06
 5.07280863e-06
 5.07280863e-06
 5.07280863e-06
 5.07280863e-06
 1.76029859e-06
 1.76029859e-06
 1.76029859e-06
 1.76029859e-06
 1.76029859e-06
 1.76029859e-06
 1.76029859e-06
 1.76029859e-06
 1.76029859e-06
 1.76029859e-06
 1.76029859e-06
 1.76029859e-06
 1.76029859e-06
 1.76029859e-06
 1.76029859e-06
 1.18847161e-06
 1.18847161e-06
 1.18847161e-06
 1.18847161e-06
 1.18847161e-06
 1.18847161e-06
 1.18847161e-06
 1.18847161e-06
 1.18847161e-06
 1.18847161e-06
 1.18847161e-06
 1.18847161e-06
 1.74456235e-06
 1.43149123e-06
 1.43149123e-06
 1.43149123e-06
 1.43149123e-06
 1.43149123e-06
 1.43149123e-06
 1.43149123e-06
 8.36238710e-07
 8.36238710e-07
 8.36238710e-07
 8.36238710e-07
 8.36238710e-07
 8.36238710e-07
 5.04329180e-07
 4.22702323e-07
 4.22702323e-07
 4.22702323e-07
 3.01632728e-07
 3.01632728e-07
 1.51308067e-07
)
)
1
(
101
(
 4.41874836e-10
 4.41874836e-10
 4.41874836e-10
 4.41874836e-10
 4.41874836e-10
 4.41874836e-10
 4.41874836e-10
 4.41874836e-10
 4.41874836e-10
 4.41874836e-10
 4.41874836e-10
 4.41874836e-10
 4.41874836e-10
 4.41874836e-10
 4.41874836e-10
 4.41874836e-10
 4.41874836e-10
 4.41874836e-10
 4.41874836e-10
 4.41874836e-10
 4.41874836e-10
 4.41874836e-10
 4.41874836e-10
 4.41874836e-10
 4.41874836e-10
 4.41874836e-10
 4.41874836e-10
 4.41874836e-10
 4.41874836e-10
 4.41874836e-10
 4.41874836e-10
 4.41874836e-10
 4.41874836e-10
 4.41874836e-10
 4.41874836e-10
 4.41874836e-10
 4.41874836e-10
 4.41874836e-10
 4.41874836e-10
 4.41874836e-10
 4.41874836e-10
 4.41874836e-10
 3.42520479e-09
 6.90997098e-06
 6.90997098e-06
 6.90997098e-06
 6.90997098e-06
 6.90997098e-06
 5.07280863e-06
 5.07280863e-06
 5.07280863e-06
 5.07280863e-06
 5.07280863e-06
 5.07280863e-06
 1.76029859e-06
 1.76029859e-06
 1.76029859e-06
 1.76029859e-06
 1.76029859e-06
 1.76029859e-06
 1.76029859e-06
 1.76029859e-06
 1.76029859e-06
 1.76029859e-06
 1.76029859e-06
 1.76029859e-06
 1.76029859e-06
 1.76029859e-06
 1.76029859e-06
 1.76029859e-06
 1.18847161e-06
 1.18847161e-06
 1.18847161e-06
 1.18847161e-06
 1.18847161e-06
 1.18847161e-06
 1.18847161e-06
 1.18847161e-06
 1.18847161e-06
 1.18847161e-06
 1.18847161e-06
 1.74456235e-06
 1.74456235e-06
 1.43149123e-06
 1.43149123e-06
 1.43149123e-06
 1.43149123e-06
 1.43149123e-06
 1.43149123e-06
 8.36238710e-07
 8.36238710e-07
 8.36238710e-07
 8.36238710e-07
 8.36238710e-07
 8.36238710e-07
 5.04329180e-07
 5.04329180e-07
 4.17702902e-07
 4.17702902e-07
 3.01632728e-07
 3.01632728e-07
)
)
1
(
101
(
 5.65980804e-10
 5.65980804e-10
 5.65980804e-10
 5.65980804e-10
 5.65980804e-10
 5.65980804e-10
 5.65980804e-10
 5.65980804e-10
 5.65980804e-10
 5.65980804e-10
 5.65980804e-10
 5.65980804e-10
 5.65980804e-10
 5.65980804e-10
 5.65980804e-10
 5.65980804e-10
 5.65980804e-10
 5.65980804e-10
 5.65980804e-10
 5.65980804e-10
 5.65980804e-10
 5.65980804e-10
 5.65980804e-10
 5.65980804e-10
 5.65980804e-10
 5.65980804e-10
 5.65980804e-10
 5.65980804e-10
 5.65980804e-10
 5.65980804e-10
 5.65980804e-10
 5.65980804e-10
 5.65980804e-10
 3.42520479e-09
 3.42520479e-09
 3.42520479e-09
 3.42520479e-09
 3.42520479e-09
 3.42520479e-09
 3.42520479e-09
 3.42520479e-09
 3.42520479e-09
 3.42520479e-09
 6.90997098e-06
 6.90997098e-06
 6.90997098e-06
 6.90997098e-06
 6.90997098e-06
 6.90997098e-06
 5.07280863e-06
 5.07280863e-06
 5.07280863e-06
 5.07280863e-06
 5.07280863e-06
 5.07280863e-06
 5.07280863e-06
 1.76029859e-06
 1.76029859e-06
 1.76029859e-06
 1.76029859e-06
 1.76029859e-06
 1.76029859e-06
 1.76029859e-06
 1.76029859e-06
 1.76029859e-06
 1.76029859e-06
 1.76029859e-06
 1.76029859e-06
 1.76029859e-06
 1.76029859e-06
 1.76029859e-06
 1.18847161e-06
 1.18847161e-06
 1.18847161e-06
 1.18847161e-06
 1.18847161e-06
 1.18847161e-06
 1.18847161e-06
 1.18847161e-06
 1.18847161e-06
 1.18847161e-06
 1.18847161e-06
 1.74456235e-06
 1.74456235e-06
 1.43149123e-06
 1.43149123e-06
 1.43149123e-06
 1.43149123e-06
 1.43149123e-06
 1.43149123e-06
 1.43149123e-06
 8.36238710e-07
 8.36238710e-07
 8.36238710e-07
 8.36238710e-07
 8.36238710e-07
 5.04329180e-07
 5.04329180e-07
 4.17702902e-07
 4.17702902e-07
 3.01632728e-07
)
)
1
(
101
(
 8.00296962e-10
 8.00296962e-10
 8.00296962e-10
 8.00296962e-10
 8.00296962e-10
 8.00296962e-10
 8.00296962e-10
 8.00296962e-10
 8.00296962e-10
 8.00296962e-10
 8.00296962e-10
 8.00296962e-10
 8.00296962e-10
 8.00296962e-10
 8.00296962e-10
 8.00296962e-10
 8.00296962e-10
 8.00296962e-10
 8.00296962e-10
 8.00296962e-10
 8.00296962e-10
 8.00296962e-10
 8.00296962e-10
 8.00296962e-10
 8.00296962e-10
 8.00296962e-10
 3.42520479e-09
 3.42520479e-09
 3.42520479e-09
 3.42520479e-09
 3.42520479e-09
 3.42520479e-09
 3.42520479e-09
 3.42520479e-09
 3.42520479e-09
 3.42520479e-09
 3.42520479e-09
 3.42520479e-09
 3.42520479e-09
 3.42520479e-09
 3.42520479e-09
 3.42520479e-09
 3.42520479e-09
 6.90997098e-06
 6.90997098e-06
 6.90997098e-06
 6.90997098e-06
 6.90997098e-06
 6.90997098e-06
 6.90997098e-06
 5.07280863e-06
 5.07280863e-06
 5.07280863e-06
 5.07280863e-06
 5.07280863e-06
 5.07280863e-06
 5.07280863e-06
 1.76029859e-06
 1.76029859e-06
 1.76029859e-06
 1.76029859e-06
 1.76029859e-06
 1.76029859e-06
 1.76029859e-06
 1.76029859e-06
 1.76029859e-06
 1.76029859e-06
 1.76029859e-06
 1.76029859e-06
 1.76029859e-06
 1.76029859e-06
 1.76029859e-06
 1.18847161e-06
 1.18847161e-06
 1.18847161e-06
 1.18847161e-06
 1.18847161e-06
 1.18847161e-06
 1.18847161e-06
 1.18847161e-06
 1.18847161e-06
 1.18847161e-06
 1.18847161e-06
 1.74456235e-06
 1.74456235e-06
 1.74456235e-06
 1.43149123e-06
 1.43149123e-06
 1.43149123e-06
 1.43149123e-06
 1.43149123e-06
 1.43149123e-06
 9.80564506e-07
 8.36238710e-07
 8.36238710e-07
 8.36238710e-07
 6.08495235e-07
 6.08495235e-07
 6.08495235e-07
 4.17702902e-07
 4.17702902e-07
)
)
1
(
101
(
 8.06687249e-10
 8.06687249e-10
 8.06687249e-10
 8.06687249e-10
 8.06687249e-10
 8.06687249e-10
 8.06687249e-10
 8.06687249e-10
 8.06687249e-10
 8.06687249e-10
 8.06687249e-10
 8.06687249e-10
 8.06687249e-10
 8.06687249e-10
 8.06687249e-10
 8.06687249e-10
 8.06687249e-10
 8.06687249e-10
 8.06687249e-10
 3.42520479e-09
 3.42520479e-09
 3.42520479e-09
 3.42520479e-09
 3.42520479e-09
 3.42520479e-09
 3.42520479e-09
 3.42520479e-09
 3.42520479e-09
 3.42520479e-09
 3.42520479e-09
 3.42520479e-09
 3.42520479e-09
 3.42520479e-09
 3.42520479e-09
 3.42520479e-09
 3.42520479e-09
 3.42520479e-09
 3.42520479e-09
 3.42520479e-09
 3.42520479e-09
 3.42520479e-09
 3.42520479e-09
 6.90997098e-06
 6.90997098e-06
 6.90997098e-06
 6.90997098e-06
 6.90997098e-06
 6.90997098e-06
 6.90997098e-06
 6.90997098e-06
 6.90997098e-06
 5.07280863e-06
 5.07280863e-06
 5.07280863e-06
 5.07280863e-06
 5.07280863e-06
 5.07280863e-06
 5.07280863e-06
 5.07280863e-06
 1.76029859e-06
 1.76029859e-06
 1.76029859e-06
 1.76029859e-06
 1.76029859e-06
 1.76029859e-06
 1.76029859e-06
 1.76029859e-06
 1.76029859e-06
 1.76029859e-06
 1.76029859e-06
 1.76029859e-06
 1.76029859e-06
 1.76029859e-06
 1.18847161e-06
 1.18847161e-06
 1.18847161e-06
 1.18847161e-06
 1.18847161e-06
 1.18847161e-06
 1.18847161e-06
 1.18847161e-06
 1.18847161e-06
 1.18847161e-06
 1.18847161e-06
 1.74456235e-06
 1.74456235e-06
 1.74456235e-06
 1.43149123e-06
 1.43149123e-06
 1.43149123e-06
 1.43149123e-06
 1.43149123e-06
 1.43149123e-06
 9.80564506e-07
 9.80564506e-07
 7.43951553e-07
 7.43951553e-07
 6.08495235e-07
 6.08495235e-07
 6.08495235e-07
 6.08495235e-07
)
)
1
(
101
(
 1.06781127e-09
 1.06781127e-09
 1.06781127e-09
 1.06781127e-09
 1.06781127e-09
 1.06781127e-09
 1.06781127e-09
 1.06781127e-09
 1.06781127e-09
 1.06781127e-09
 1.06781127e-09
 1.06781127e-09
 1.06781127e-09
 1.06781127e-09
 3.42520479e-09
 3.42520479e-09
 3.42520479e-09
 3.42520479e-09
 3.42520479e-09
 3.42520479e-09
 3.42520479e-09
 3.42520479e-09
 3.42520479e-09
 3.42520479e-09
 3.42520479e-09
 3.42520479e-09
 3.42520479e-09
 3.42520479e-09
 3.42520479e-09
 3.42520479e-09
 3.42520479e-09
 3.42520479e-09
 3.42520479e-09
 3.42520479e-09
 3.42520479e-09
 3.42520479e-09
 3.42520479e-09
 3.42520479e-09
 3.42520479e-09
 3.42520479e-09
 3.42520479e-09
 3.42520479e-09
 6.90997098e-06
 6.90997098e-06
 6.90997098e-06
 6.90997098e-06
 6.90997098e-06
 6.90997098e-06
 6.90997098e-06
 6.90997098e-06
 6.90997098e-06
 6.90997098e-06
 5.07280863e-06
 5.07280863e-06
 5.07280863e-06
 5.07280863e-06
 5.07280863e-06
 5.07280863e-06
 5.07280863e-06
 5.07280863e-06
 1.76029859e-06
 1.76029859e-06
 1.76029859e-06
 1.76029859e-06
 1.76029859e-06
 1.76029859e-06
 1.76029859e-06
 1.76029859e-06
 1.76029859e-06
 1.76029859e-06
 1.76029859e-06
 1.76029859e-06
 1.76029859e-06
 1.76029859e-06
 1.76029859e-06
 1.18847161e-06
 1.18847161e-06
 1.18847161e-06
 1.18847161e-06
 1.18847161e-06
 1.18847161e-06
 1.18847161e-06
 1.18847161e-06
 1.18847161e-06
 1.18847161e-06
 1.74456235e-06
 1.74456235e-06
 1.74456235e-06
 1.74456235e-06
 1.43149123e-06
 1.43149123e-06
 1.43149123e-06
 1.43149123e-06
 1.43149123e-06
 9.80564506e-07
 9.80564506e-07
 7.43951553e-07
 7.43951553e-07
 6.08495235e-07
 6.08495235e-07
 6.08495235e-07
)
)
1
(
101
(
 1.16224633e-09
 1.16224633e-09
 1.16224633e-09
 1.16224633e-09
 1.16224633e-09
 1.16224633e-09
 1.16224633e-09
 1.16224633e-09
 1.16224633e-09
 3.42520479e-09
 3.42520479e-09
 3.42520479e-09
 3.42520479e-09
 3.42520479e-09
 3.42520479e-09
 3.42520479e-09
 3.42520479e-09
 3.42520479e-09
 3.42520479e-09
 3.42520479e-09
 3.42520479e-09
 3.42520479e-09
 3.42520479e-09
 3.42520479e-09
 3.42520479e-09
 3.42520479e-09
 3.42520479e-09
 3.42520479e-09
 3.42520479e-09
 3.42520479e-09
 3.42520479e-09
 3.42520479e-09
 3.42520479e-09
 3.42520479e-09
 3.42520479e-09
 3.42520479e-09
 3.42520479e-09
 3.42520479e-09
 3.42520479e-09
 3.42520479e-09
 3.42520479e-09
 3.42520479e-09
 6.90997098e-06
 6.90997098e-06
 6.90997098e-06
 6.90997098e-06
 6.90997098e-06
 6.90997098e-06
 6.90997098e-06
 6.90997098e-06
 6.90997098e-06
 6.90997098e-06
 6.90997098e-06
 6.90997098e-06
 5.07280863e-06
 5.07280863e-06
 5.07280863e-06
 5.07280863e-06
 5.07280863e-06
 5.07280863e-06
 5.07280863e-06
 5.07280863e-06
 1.76029859e-06
 1.76029859e-06
 1.76029859e-06
 1.76029859e-06
 1.76029859e-06
 1.76029859e-06
 1.76029859e-06
 1.76029859e-06
 1.76029859e-06
 1.76029859e-06
 1.76029859e-06
 1.76029859e-06
 1.76029859e-06
 1.76029859e-06
 1.18847161e-06
 1.18847161e-06
 1.18847161e-06
 1.18847161e-06
 1.18847161e-06
 1.18847161e-06
 1.18847161e-06
 1.18847161e-06
 1.18847161e-06
 1.18847161e-06
 1.74456235e-06
 1.74456235e-06
 1.74456235e-06
 1.74456235e-06
 1.60315934e-06
 1.43149123e-06
 1.43149123e-06
 1.43149123e-06
 1.43149123e-06
 9.80564506e-07
 9.80564506e-07
 7.43951553e-07
 7.43951553e-07
 6.08495235e-07
 6.08495235e-07
)
)
1
(
101
(
 1.23089816e-09
 1.23089816e-09
 1.23089816e-09
 1.23089816e-09
 1.23089816e-09
 1.23089816e-09
 3.42520479e-09
 3.42520479e-09
 3.42520479e-09
 3.42520479e-09
 3.42520479e-09
 3.42520479e-09
 3.42520479e-09
 3.42520479e-09
 3.42520479e-09
 3.42520479e-09
 3.42520479e-09
 3.42520479e-09
 3.42520479e-09
 3.42520479e-09
 3.42520479e-09
 3.42520479e-09
 3.42520479e-09
 3.42520479e-09
 3.42520479e-09
 3.42520479e-09
 3.42520479e-09
 3.42520479e-09
 3.42520479e-09
 3.42520479e-09
 3.42520479e-09
 3.42520479e-09
 3.42520479e-09
 3.42520479e-09
 3.42520479e-09
 3.42520479e-09
 3.42520479e-09
 3.42520479e-09
 3.42520479e-09
 3.42520479e-09
 3.42520479e-09
 3.42520479e-09
 6.90997098e-06
 6.90997098e-06
 6.90997098e-06
 6.90997098e-06
 6.90997098e-06
 6.90997098e-06
 6.90997098e-06
 6.90997098e-06
 6.90997098e-06
 6.90997098e-06
 6.90997098e-06
 6.90997098e-06
 6.90997098e-06
 5.07280863e-06
 5.07280863e-06
 5.07280863e-06
 5.07280863e-06
 5.07280863e-06
 5.07280863e-06
 5.07280863e-06
 5.07280863e-06
 1.76029859e-06
 1.76029859e-06
 1.76029859e-06
 1.76029859e-06
 1.76029859e-06
 1.76029859e-06
 1.76029859e-06
 1.76029859e-06
 1.76029859e-06
 1.76029859e-06
 1.76029859e-06
 1.76029859e-06
 1.76029859e-06
 1.76029859e-06
 1.18847161e-06
 1.18847161e-06
 1.18847161e-06
 1.18847161e-06
 1.18847161e-06
 1.18847161e-06
 1.18847161e-06
 1.18847161e-06
 1.18847161e-06
 1.18847161e-06
 1.74456235e-06
 1.74456235e-06
 1.74456235e-06
 1.74456235e-06
 1.60315934e-06
 1.60315934e-06
 1.04875250e-06
 1.04875250e-06
 1.04875250e-06
 9.80564506e-07
 9.80564506e-07
 7.43951553e-07
 7.43951553e-07
 6.08495235e-07
)
)
1
(
101
(
 1.49528178e-09
 1.49528178e-09
 1.49528178e-09
 3.42520479e-09
 3.42520479e-09
 3.42520479e-09
 3.42520479e-09
 3.42520479e-09
 3.42520479e-09
 3.42520479e-09
 3.42520479e-09
 3.42520479e-09
 3.42520479e-09
 3.42520479e-09
 3.42520479e-09
 3.42520479e-09
 3.42520479e-09
 3.42520479e-09
 3.42520479e-09
 3.42520479e-09
 3.42520479e-09
 3.42520479e-09
 3.42520479e-09
 3.42520479e-09
 3.42520479e-09
 3.42520479e-09
 3.42520479e-09
 3.42520479e-09
 3.42520479e-09
 3.42520479e-09
 3.42520479e-09
 3.42520479e-09
 3.42520479e-09
 3.42520479e-09
 3.42520479e-09
 3.42520479e-09
 3.42520479e-09
 3.42520479e-09
 3.42520479e-09
 3.42520479e-09
 3.42520479e-09
 7.81863918e-06
 6.90997098e-06
 6.90997098e-06
 6.90997098e-06
 6.90997098e-06
 6.90997098e-06
 6.90997098e-06
 6.90997098e-06
 6.90997098e-06
 6.90997098e-06
 6.90997098e-06
 6.90997098e-06
 6.90997098e-06
 6.90997098e-06
 6.90997098e-06
 5.07280863e-06
 5.07280863e-06
 5.07280863e-06
 5.07280863e-06
 5.07280863e-06
 5.07280863e-06
 5.07280863e-06
 5.07280863e-06
 5.07280863e-06
 1.76029859e-06
 1.76029859e-06
 1.76029859e-06
 1.76029859e-06
 1.76029859e-06
 1.76029859e-06
 1.76029859e-06
 1.76029859e-06
 1.76029859e-06
 1.76029859e-06
 1.76029859e-06
 1.76029859e-06
 1.76029859e-06
 1.18847161e-06
 1.18847161e-06
 1.18847161e-06
 1.18847161e-06
 1.18847161e-06
 1.18847161e-06
 1.18847161e-06
 1.18847161e-06
 1.18847161e-06
 1.18847161e-06
 1.74456235e-06
 1.74456235e-06
 1.74456235e-06
 1.74456235e-06
 1.60315934e-06
 1.60315934e-06
 1.04875250e-06
 1.04875250e-06
 1.04875250e-06
 1.04875250e-06
 9.80564506e-07
 7.43951553e-07
 7.43951553e-07
)
)
1
(
101
(
 1.17138512e-09
 1.17138512e-09
 3.42520479e-09
 3.42520479e-09
 3.42520479e-09
 3.42520479e-09
 3.42520479e-09
 3.42520479e-09
 3.42520479e-09
 3.42520479e-09
 3.42520479e-09
 3.42520479e-09
 3.42520479e-09
 3.42520479e-09
 3.42520479e-09
 3.42520479e-09
 3.42520479e-09
 3.42520479e-09
 3.42520479e-09
 3.42520479e-09
 3.42520479e-09
 3.42520479e-09
 3.42520479e-09
 3.42520479e-09
 3.42520479e-09
 3.42520479e-09
 3.42520479e-09
 3.42520479e-09
 3.42520479e-09
 3.42520479e-09
 3.42520479e-09
 3.42520479e-09
 3.42520479e-09
 3.42520479e-09
 3.42520479e-09
 3.42520479e-09
 3.42520479e-09
 3.42520479e-09
 3.42520479e-09
 3.42520479e-09
 3.42520479e-09
 7.81863918e-06
 7.81863918e-06
 6.90997098e-06
 6.90997098e-06
 6.90997098e-06
 6.90997098e-06
 6.90997098e-06
 6.90997098e-06
 6.90997098e-06
 6.90997098e-06
 6.90997098e-06
 6.90997098e-06
 6.90997098e-06
 6.90997098e-06
 6.90997098e-06
 6.90997098e-06
 5.07280863e-06
 5.07280863e-06
 5.07280863e-06
 5.07280863e-06
 5.07280863e-06
 5.07280863e-06
 5.07280863e-06
 5.07280863e-06
 5.07280863e-06
 1.76029859e-06
 1.76029859e-06
 1.76029859e-06
 1.76029859e-06
 1.76029859e-06
 1.76029859e-06
 1.76029859e-06
 1.76029859e-06
 1.76029859e-06
 1.76029859e-06
 1.76029859e-06
 1.76029859e-06
 1.76029859e-06
 1.76029859e-06
 1.18847161e-06
 1.18847161e-06
 1.18847161e-06
 1.18847161e-06
 1.18847161e-06
 1.18847161e-06
 1.18847161e-06
 1.18847161e-06
 2.00520783e-06
 1.74456235e-06
 1.74456235e-06
 1.74456235e-06
 8.32078963e-07
 8.32078963e-07
 8.32078963e-07
 1.04875250e-06
 1.04875250e-06
 1.04875250e-06
 1.04875250e-06
 1.04875250e-06
 7.43951553e-07
)
)
1
(
101
(
 1.66641026e-11
 3.42520479e-09
 3.42520479e-09
 3.42520479e-09
 3.42520479e-09
 3.42520479e-09
 3.42520479e-09
 3.42520479e-09
 3.42520479e-09
 3.42520479e-09
 3.42520479e-09
 3.42520479e-09
 3.42520479e-09
 3.42520479e-09
 3.42520479e-09
 3.42520479e-09
 3.42520479e-09
 3.42520479e-09
 3.42520479e-09
 3.42520479e-09
 3.42520479e-09
 3.42520479e-09
 3.42520479e-09
 3.42520479e-09
 3.42520479e-09
 3.42520479e-09
 3.42520479e-09
 3.42520479e-09
 3.42520479e-09
 3.42520479e-09
 3.42520479e-09
 3.42520479e-09
 3.42520479e-09
 3.42520479e-09
 3.42520479e-09
 3.42520479e-09
 3.42520479e-09
 3.42520479e-09
 3.42520479e-09
 3.42520479e-09
 7.81863918e-06
 7.81863918e-06
 7.81863918e-06
 7.81863918e-06
 6.90997098e-06
 6.90997098e-06
 6.90997098e-06
 6.90997098e-06
 6.90997098e-06
 6.90997098e-06
 6.90997098e-06
 6.90997098e-06
 6.90997098e-06
 6.90997098e-06
 6.90997098e-06
 6.90997098e-06
 6.90997098e-06
 6.90997098e-06
 5.07280863e-06
 5.07280863e-06
 5.07280863e-06
 5.07280863e-06
 5.07280863e-06
 5.07280863e-06
 5.07280863e-06
 5.07280863e-06
 5.07280863e-06
 5.07280863e-06
 1.76029859e-06
 1.76029859e-06
 1.76029859e-06
 1.76029859e-06
 1.76029859e-06
 1.76029859e-06
 1.76029859e-06
 1.76029859e-06
 1.76029859e-06
 1.76029859e-06
 1.76029859e-06
 1.76029859e-06
 1.76029859e-06
 2.92861379e-06
 1.18847161e-06
 1.18847161e-06
 1.18847161e-06
 1.18847161e-06
 1.18847161e-06
 1.18847161e-06
 1.18847161e-06
 2.00520783e-06
 2.00520783e-06
 1.74332358e-06
 1.74332358e-06
 8.32078963e-07
 8.32078963e-07
 8.32078963e-07
 8.32078963e-07
 1.04875250e-06
 1.04875250e-06
 1.04875250e-06
 1.04875250e-06
)
)
1
(
101
(
 1.66641026e-11
 1.87828695e-09
 1.87828695e-09
 1.87828695e-09
 1.87828695e-09
 1.87828695e-09
 1.87828695e-09
 1.87828695e-09
 1.87828695e-09
 1.87828695e-09
 1.87828695e-09
 1.87828695e-09
 1.87828695e-09
 1.87828695e-09
 1.87828695e-09
 1.87828695e-09
 1.87828695e-09
 1.87828695e-09
 1.87828695e-09
 1.87828695e-09
 1.87828695e-09
 1.87828695e-09
 1.87828695e-09
 1.87828695e-09
 1.87828695e-09
 1.87828695e-09
 1.87828695e-09
 1.87828695e-09
 1.87828695e-09
 1.87828695e-09
 1.87828695e-09
 1.87828695e-09
 1.87828695e-09
 1.87828695e-09
 1.87828695e-09
 1.87828695e-09
 1.87828695e-09
 1.87828695e-09
 1.87828695e-09
 1.87828695e-09
 7.81863918e-06
 7.81863918e-06
 7.81863918e-06
 7.81863918e-06
 7.81863918e-06
 6.90997098e-06
 6.90997098e-06
 6.90997098e-06
 6.90997098e-06
 6.90997098e-06
 6.90997098e-06
 6.90997098e-06
 6.90997098e-06
 6.90997098e-06
 6.90997098e-06
 6.90997098e-06
 6.90997098e-06
 6.90997098e-06
 6.90997098e-06
 5.07280863e-06
 5.07280863e-06
 5.07280863e-06
 5.07280863e-06
 5.07280863e-06
 5.07280863e-06
 5.07280863e-06
 5.07280863e-06
 5.07280863e-06
 5.07280863e-06
 1.76029859e-06
 1.76029859e-06
 1.76029859e-06
 1.76029859e-06
 1.76029859e-06
 1.76029859e-06
 1.76029859e-06
 1.76029859e-06
 1.76029859e-06
 1.76029859e-06
 1.76029859e-06
 1.76029859e-06
 1.76029859e-06
 2.92861379e-06
 2.92861379e-06
 1.18847161e-06
 1.18847161e-06
 1.18847161e-06
 1.18847161e-06
 1.18847161e-06
 2.00520783e-06
 2.00520783e-06
 2.00520783e-06
 1.74332358e-06
 1.74332358e-06
 8.32078963e-07
 8.32078963e-07
 8.32078963e-07
 8.32078963e-07
 8.32078963e-07
 1.04875250e-06
 1.04875250e-06
)
)
1
(
101
(
 2.36664381e-09
 2.36664381e-09
 2.36664381e-09
 2.36664381e-09
 2.36664381e-09
 2.36664381e-09
 2.36664381e-09
 2.36664381e-09
 2.36664381e-09
 2.36664381e-09
 2.36664381e-09
 2.36664381e-09
 2.36664381e-09
 2.36664381e-09
 2.36664381e-09
 2.36664381e-09
 2.36664381e-09
 2.36664381e-09
 2.36664381e-09
 2.36664381e-09
 2.36664381e-09
 2.36664381e-09
 2.36664381e-09
 2.36664381e-09
 2.36664381e-09
 2.36664381e-09
 2.36664381e-09
 2.36664381e-09
 2.36664381e-09
 2.36664381e-09
 2.36664381e-09
 2.36664381e-09
 2.36664381e-09
 2.36664381e-09
 2.36664381e-09
 2.36664381e-09
 2.36664381e-09
 2.36664381e-09
 2.36664381e-09
 2.36664381e-09
 7.81863918e-06
 7.81863918e-06
 7.81863918e-06
 7.81863918e-06
 7.81863918e-06
 7.81863918e-06
 6.90997098e-06
 6.90997098e-06
 6.90997098e-06
 6.90997098e-06
 6.90997098e-06
 6.90997098e-06
 6.90997098e-06
 6.90997098e-06
 6.90997098e-06
 6.90997098e-06
 6.90997098e-06
 6.90997098e-06
 6.90997098e-06
 6.90997098e-06
 6.90997098e-06
 5.07280863e-06
 5.07280863e-06
 5.07280863e-06
 5.07280863e-06
 5.07280863e-06
 5.07280863e-06
 5.07280863e-06
 5.07280863e-06
 5.07280863e-06
 5.07280863e-06
 1.76029859e-06
 1.76029859e-06
 1.76029859e-06
 1.76029859e-06
 1.76029859e-06
 1.76029859e-06
 1.76029859e-06
 1.76029859e-06
 1.76029859e-06
 1.76029859e-06
 1.76029859e-06
 1.76029859e-06
 2.92861379e-06
 2.92861379e-06
 2.92861379e-06
 1.18847161e-06
 1.18847161e-06
 1.18847161e-06
 1.18847161e-06
 2.00520783e-06
 2.00520783e-06
 2.00520783e-06
 1.74332358e-06
 1.74332358e-06
 8.32078963e-07
 8.32078963e-07
 8.32078963e-07
 8.32078963e-07
 8.32078963e-07
 8.32078963e-07
)
)
1
(
101
(
 2.72604832e-09
 2.72604832e-09
 2.72604832e-09
 2.72604832e-09
 2.72604832e-09
 2.72604832e-09
 2.72604832e-09
 2.72604832e-09
 2.72604832e-09
 2.72604832e-09
 2.72604832e-09
 2.72604832e-09
 2.72604832e-09
 2.72604832e-09
 2.72604832e-09
 2.72604832e-09
 2.72604832e-09
 2.72604832e-09
 2.72604832e-09
 2.72604832e-09
 2.72604832e-09
 2.72604832e-09
 2.72604832e-09
 2.72604832e-09
 2.72604832e-09
 2.72604832e-09
 2.72604832e-09
 2.72604832e-09
 2.72604832e-09
 2.72604832e-09
 2.72604832e-09
 2.72604832e-09
 2.72604832e-09
 2.72604832e-09
 2.72604832e-09
 2.72604832e-09
 2.72604832e-09
 2.72604832e-09
 2.72604832e-09
 7.81863918e-06
 7.81863918e-06
 7.81863918e-06
 7.81863918e-06
 7.81863918e-06
 7.81863918e-06
 7.81863918e-06
 7.81863918e-06
 7.81863918e-06
 6.90997098e-06
 6.90997098e-06
 6.90997098e-06
 6.90997098e-06
 6.90997098e-06
 6.90997098e-06
 6.90997098e-06
 6.90997098e-06
 6.90997098e-06
 6.90997098e-06
 6.90997098e-06
 6.90997098e-06
 6.90997098e-06
 6.90997098e-06
 5.07280863e-06
 5.07280863e-06
 5.07280863e-06
 5.07280863e-06
 5.07280863e-06
 5.07280863e-06
 5.07280863e-06
 5.07280863e-06
 5.07280863e-06
 5.07280863e-06
 1.76029859e-06
 1.76029859e-06
 1.76029859e-06
 1.76029859e-06
 1.76029859e-06
 1.76029859e-06
 1.76029859e-06
 1.76029859e-06
 1.76029859e-06
 1.76029859e-06
 1.76029859e-06
 1.76029859e-06
 2.92861379e-06
 2.92861379e-06
 2.92861379e-06
 2.92861379e-06
 2.38026489e-06
 2.38026489e-06
 2.38026489e-06
 2.00520783e-06
 2.00520783e-06
 2.00520783e-06
 1.74332358e-06
 1.74332358e-06
 8.32078963e-07
 8.32078963e-07
 8.32078963e-07