/*--------------------------------*- C++ -*----------------------------------*\
| =========                 |                                                 |
| \\      /  F ield        | OpenFOAM: The Open Source CFD Toolbox           |
|  \\    /   O peration    | Version:  7                                     |
|   \\  /    A nd          | Web:      http://www.OpenFOAM.com               |
|    \\/     M anipulation |                                                 |
\*---------------------------------------------------------------------------*/

FoamFile
{
    version     2.0;
    format      ascii;
    class       dictionary;
    object      Y_HOCN_table;
}

Y_HOCN_table
2
(
101
(
1
(
101
(
 2.33618107e-15
 2.33618107e-15
 2.33618107e-15
 2.33618107e-15
 2.33618107e-15
 2.33618107e-15
 2.33618107e-15
 2.33618107e-15
 2.33618107e-15
 2.33618107e-15
 2.33618107e-15
 2.33618107e-15
 2.33618107e-15
 2.33618107e-15
 2.33618107e-15
 2.33618107e-15
 2.33618107e-15
 2.33618107e-15
 2.33618107e-15
 2.33618107e-15
 2.33618107e-15
 2.33618107e-15
 2.33618107e-15
 2.33618107e-15
 2.33618107e-15
 2.33618107e-15
 2.33618107e-15
 2.33618107e-15
 2.33618107e-15
 2.33618107e-15
 2.33618107e-15
 2.33618107e-15
 2.33618107e-15
 2.33618107e-15
 2.33618107e-15
 2.33618107e-15
 2.33618107e-15
 2.33618107e-15
 2.33618107e-15
 2.33618107e-15
 2.33618107e-15
 2.33618107e-15
 2.33618107e-15
 2.33618107e-15
 2.33618107e-15
 1.05660872e-08
 1.05660872e-08
 3.57452331e-09
 3.57452331e-09
 3.57452331e-09
 3.57452331e-09
 3.57452331e-09
 3.57452331e-09
 3.57452331e-09
 3.57452331e-09
 3.57452331e-09
 3.57452331e-09
 3.57452331e-09
 3.57452331e-09
 3.57452331e-09
 3.57452331e-09
 3.57452331e-09
 3.57452331e-09
 2.43209417e-09
 2.43209417e-09
 2.43209417e-09
 2.43209417e-09
 2.43209417e-09
 2.43209417e-09
 2.43209417e-09
 2.43209417e-09
 2.43209417e-09
 2.43209417e-09
 2.43209417e-09
 2.43209417e-09
 2.98249614e-09
 2.98249614e-09
 2.98249614e-09
 2.98249614e-09
 2.98249614e-09
 2.98249614e-09
 2.98249614e-09
 1.73476924e-09
 1.73476924e-09
 1.73476924e-09
 1.73476924e-09
 1.73476924e-09
 1.73476924e-09
 8.76135587e-10
 8.76135587e-10
 8.76135587e-10
 8.76135587e-10
 8.76135587e-10
 8.76135587e-10
 8.76135587e-10
 1.41398315e-10
 1.41398315e-10
 1.41398315e-10
 1.41398315e-10
 1.41398315e-10
 1.26734960e-12
)
)
1
(
101
(
 1.80610593e-13
 1.80610593e-13
 1.80610593e-13
 1.80610593e-13
 1.80610593e-13
 1.80610593e-13
 1.80610593e-13
 1.80610593e-13
 1.80610593e-13
 1.80610593e-13
 1.80610593e-13
 1.80610593e-13
 1.80610593e-13
 1.80610593e-13
 1.80610593e-13
 1.80610593e-13
 1.80610593e-13
 1.80610593e-13
 1.80610593e-13
 1.80610593e-13
 1.80610593e-13
 1.80610593e-13
 1.80610593e-13
 1.80610593e-13
 1.80610593e-13
 1.80610593e-13
 1.80610593e-13
 1.80610593e-13
 1.80610593e-13
 1.80610593e-13
 1.80610593e-13
 1.80610593e-13
 1.80610593e-13
 1.80610593e-13
 1.80610593e-13
 1.80610593e-13
 1.80610593e-13
 1.80610593e-13
 1.80610593e-13
 1.80610593e-13
 1.80610593e-13
 1.80610593e-13
 1.80610593e-13
 1.80610593e-13
 1.80610593e-13
 1.05660872e-08
 1.05660872e-08
 1.05660872e-08
 3.57452331e-09
 3.57452331e-09
 3.57452331e-09
 3.57452331e-09
 3.57452331e-09
 3.57452331e-09
 3.57452331e-09
 3.57452331e-09
 3.57452331e-09
 3.57452331e-09
 3.57452331e-09
 3.57452331e-09
 3.57452331e-09
 3.57452331e-09
 3.57452331e-09
 3.57452331e-09
 3.57452331e-09
 2.43209417e-09
 2.43209417e-09
 2.43209417e-09
 2.43209417e-09
 2.43209417e-09
 2.43209417e-09
 2.43209417e-09
 2.43209417e-09
 2.43209417e-09
 2.43209417e-09
 2.43209417e-09
 2.43209417e-09
 2.98249614e-09
 2.98249614e-09
 2.98249614e-09
 2.98249614e-09
 2.98249614e-09
 2.98249614e-09
 1.73476924e-09
 1.73476924e-09
 1.73476924e-09
 1.73476924e-09
 1.73476924e-09
 1.73476924e-09
 1.73476924e-09
 8.76135587e-10
 8.76135587e-10
 8.76135587e-10
 8.76135587e-10
 8.76135587e-10
 8.76135587e-10
 4.84645509e-10
 1.41398315e-10
 1.41398315e-10
 1.41398315e-10
 6.81329783e-11
)
)
1
(
101
(
 5.39347206e-13
 5.39347206e-13
 5.39347206e-13
 5.39347206e-13
 5.39347206e-13
 5.39347206e-13
 5.39347206e-13
 5.39347206e-13
 5.39347206e-13
 5.39347206e-13
 5.39347206e-13
 5.39347206e-13
 5.39347206e-13
 5.39347206e-13
 5.39347206e-13
 5.39347206e-13
 5.39347206e-13
 5.39347206e-13
 5.39347206e-13
 5.39347206e-13
 5.39347206e-13
 5.39347206e-13
 5.39347206e-13
 5.39347206e-13
 5.39347206e-13
 5.39347206e-13
 5.39347206e-13
 5.39347206e-13
 5.39347206e-13
 5.39347206e-13
 5.39347206e-13
 5.39347206e-13
 5.39347206e-13
 5.39347206e-13
 5.39347206e-13
 5.39347206e-13
 5.39347206e-13
 5.39347206e-13
 5.39347206e-13
 5.39347206e-13
 5.39347206e-13
 5.39347206e-13
 5.39347206e-13
 5.39347206e-13
 1.05660872e-08
 1.05660872e-08
 1.05660872e-08
 1.05660872e-08
 1.05660872e-08
 1.05660872e-08
 3.57452331e-09
 3.57452331e-09
 3.57452331e-09
 3.57452331e-09
 3.57452331e-09
 3.57452331e-09
 3.57452331e-09
 3.57452331e-09
 3.57452331e-09
 3.57452331e-09
 3.57452331e-09
 3.57452331e-09
 3.57452331e-09
 3.57452331e-09
 3.57452331e-09
 3.57452331e-09
 2.43209417e-09
 2.43209417e-09
 2.43209417e-09
 2.43209417e-09
 2.43209417e-09
 2.43209417e-09
 2.43209417e-09
 2.43209417e-09
 2.43209417e-09
 2.43209417e-09
 2.43209417e-09
 2.43209417e-09
 2.98249614e-09
 2.98249614e-09
 2.98249614e-09
 2.98249614e-09
 2.98249614e-09
 2.98249614e-09
 2.98249614e-09
 1.73476924e-09
 1.73476924e-09
 1.73476924e-09
 1.73476924e-09
 1.73476924e-09
 1.73476924e-09
 8.76135587e-10
 8.76135587e-10
 8.76135587e-10
 8.76135587e-10
 8.76135587e-10
 8.76135587e-10
 4.84645509e-10
 4.84645509e-10
 2.59160788e-10
 2.59160788e-10
)
)
1
(
101
(
 7.80192722e-13
 7.80192722e-13
 7.80192722e-13
 7.80192722e-13
 7.80192722e-13
 7.80192722e-13
 7.80192722e-13
 7.80192722e-13
 7.80192722e-13
 7.80192722e-13
 7.80192722e-13
 7.80192722e-13
 7.80192722e-13
 7.80192722e-13
 7.80192722e-13
 7.80192722e-13
 7.80192722e-13
 7.80192722e-13
 7.80192722e-13
 7.80192722e-13
 7.80192722e-13
 7.80192722e-13
 7.80192722e-13
 7.80192722e-13
 7.80192722e-13
 7.80192722e-13
 7.80192722e-13
 7.80192722e-13
 7.80192722e-13
 7.80192722e-13
 7.80192722e-13
 7.80192722e-13
 7.80192722e-13
 7.80192722e-13
 7.80192722e-13
 7.80192722e-13
 7.80192722e-13
 7.80192722e-13
 7.80192722e-13
 7.80192722e-13
 7.80192722e-13
 7.80192722e-13
 7.80192722e-13
 7.80192722e-13
 1.44550875e-08
 1.05660872e-08
 1.05660872e-08
 1.05660872e-08
 1.05660872e-08
 1.05660872e-08
 1.05660872e-08
 3.57452331e-09
 3.57452331e-09
 3.57452331e-09
 3.57452331e-09
 3.57452331e-09
 3.57452331e-09
 3.57452331e-09
 3.57452331e-09
 3.57452331e-09
 3.57452331e-09
 3.57452331e-09
 3.57452331e-09
 3.57452331e-09
 3.57452331e-09
 3.57452331e-09
 3.57452331e-09
 2.43209417e-09
 2.43209417e-09
 2.43209417e-09
 2.43209417e-09
 2.43209417e-09
 2.43209417e-09
 2.43209417e-09
 2.43209417e-09
 2.43209417e-09
 2.43209417e-09
 2.43209417e-09
 2.43209417e-09
 3.64798061e-09
 2.98249614e-09
 2.98249614e-09
 2.98249614e-09
 2.98249614e-09
 2.98249614e-09
 2.98249614e-09
 1.73476924e-09
 1.73476924e-09
 1.73476924e-09
 1.73476924e-09
 1.73476924e-09
 1.73476924e-09
 1.73476924e-09
 8.76135587e-10
 8.76135587e-10
 8.76135587e-10
 8.76135587e-10
 8.76135587e-10
 4.84645509e-10
 3.29378700e-10
 3.29378700e-10
)
)
1
(
101
(
 1.36668002e-12
 1.36668002e-12
 1.36668002e-12
 1.36668002e-12
 1.36668002e-12
 1.36668002e-12
 1.36668002e-12
 1.36668002e-12
 1.36668002e-12
 1.36668002e-12
 1.36668002e-12
 1.36668002e-12
 1.36668002e-12
 1.36668002e-12
 1.36668002e-12
 1.36668002e-12
 1.36668002e-12
 1.36668002e-12
 1.36668002e-12
 1.36668002e-12
 1.36668002e-12
 1.36668002e-12
 1.36668002e-12
 1.36668002e-12
 1.36668002e-12
 1.36668002e-12
 1.36668002e-12
 1.36668002e-12
 1.36668002e-12
 1.36668002e-12
 1.36668002e-12
 1.36668002e-12
 1.36668002e-12
 1.36668002e-12
 1.36668002e-12
 1.36668002e-12
 1.36668002e-12
 1.36668002e-12
 1.36668002e-12
 1.36668002e-12
 1.36668002e-12
 1.36668002e-12
 1.36668002e-12
 1.36668002e-12
 1.44550875e-08
 1.44550875e-08
 1.44550875e-08
 1.05660872e-08
 1.05660872e-08
 1.05660872e-08
 1.05660872e-08
 1.05660872e-08
 1.05660872e-08
 3.57452331e-09
 3.57452331e-09
 3.57452331e-09
 3.57452331e-09
 3.57452331e-09
 3.57452331e-09
 3.57452331e-09
 3.57452331e-09
 3.57452331e-09
 3.57452331e-09
 3.57452331e-09
 3.57452331e-09
 3.57452331e-09
 3.57452331e-09
 3.57452331e-09
 2.43209417e-09
 2.43209417e-09
 2.43209417e-09
 2.43209417e-09
 2.43209417e-09
 2.43209417e-09
 2.43209417e-09
 2.43209417e-09
 2.43209417e-09
 2.43209417e-09
 2.43209417e-09
 2.43209417e-09
 3.64798061e-09
 2.98249614e-09
 2.98249614e-09
 2.98249614e-09
 2.98249614e-09
 2.98249614e-09
 2.98249614e-09
 2.98249614e-09
 1.73476924e-09
 1.73476924e-09
 1.73476924e-09
 1.73476924e-09
 1.73476924e-09
 1.73476924e-09
 1.07370095e-09
 8.76135587e-10
 8.76135587e-10
 8.76135587e-10
 6.42361835e-10
 6.42361835e-10
 3.29378700e-10
)
)
1
(
101
(
 1.72351314e-12
 1.72351314e-12
 1.72351314e-12
 1.72351314e-12
 1.72351314e-12
 1.72351314e-12
 1.72351314e-12
 1.72351314e-12
 1.72351314e-12
 1.72351314e-12
 1.72351314e-12
 1.72351314e-12
 1.72351314e-12
 1.72351314e-12
 1.72351314e-12
 1.72351314e-12
 1.72351314e-12
 1.72351314e-12
 1.72351314e-12
 1.72351314e-12
 1.72351314e-12
 1.72351314e-12
 1.72351314e-12
 1.72351314e-12
 1.72351314e-12
 1.72351314e-12
 1.72351314e-12
 1.72351314e-12
 1.72351314e-12
 1.72351314e-12
 1.72351314e-12
 1.72351314e-12
 1.72351314e-12
 1.72351314e-12
 1.72351314e-12
 1.72351314e-12
 1.72351314e-12
 1.72351314e-12
 1.72351314e-12
 1.72351314e-12
 1.72351314e-12
 1.72351314e-12
 1.34328580e-11
 1.44550875e-08
 1.44550875e-08
 1.44550875e-08
 1.44550875e-08
 1.44550875e-08
 1.05660872e-08
 1.05660872e-08
 1.05660872e-08
 1.05660872e-08
 1.05660872e-08
 1.05660872e-08
 3.57452331e-09
 3.57452331e-09
 3.57452331e-09
 3.57452331e-09
 3.57452331e-09
 3.57452331e-09
 3.57452331e-09
 3.57452331e-09
 3.57452331e-09
 3.57452331e-09
 3.57452331e-09
 3.57452331e-09
 3.57452331e-09
 3.57452331e-09
 3.57452331e-09
 3.57452331e-09
 2.43209417e-09
 2.43209417e-09
 2.43209417e-09
 2.43209417e-09
 2.43209417e-09
 2.43209417e-09
 2.43209417e-09
 2.43209417e-09
 2.43209417e-09
 2.43209417e-09
 2.43209417e-09
 3.64798061e-09
 3.64798061e-09
 2.98249614e-09
 2.98249614e-09
 2.98249614e-09
 2.98249614e-09
 2.98249614e-09
 2.98249614e-09
 1.73476924e-09
 1.73476924e-09
 1.73476924e-09
 1.73476924e-09
 1.73476924e-09
 1.73476924e-09
 1.07370095e-09
 1.07370095e-09
 8.85419798e-10
 8.85419798e-10
 6.42361835e-10
 6.42361835e-10
)
)
1
(
101
(
 2.14498245e-12
 2.14498245e-12
 2.14498245e-12
 2.14498245e-12
 2.14498245e-12
 2.14498245e-12
 2.14498245e-12
 2.14498245e-12
 2.14498245e-12
 2.14498245e-12
 2.14498245e-12
 2.14498245e-12
 2.14498245e-12
 2.14498245e-12
 2.14498245e-12
 2.14498245e-12
 2.14498245e-12
 2.14498245e-12
 2.14498245e-12
 2.14498245e-12
 2.14498245e-12
 2.14498245e-12
 2.14498245e-12
 2.14498245e-12
 2.14498245e-12
 2.14498245e-12
 2.14498245e-12
 2.14498245e-12
 2.14498245e-12
 2.14498245e-12
 2.14498245e-12
 2.14498245e-12
 2.14498245e-12
 1.34328580e-11
 1.34328580e-11
 1.34328580e-11
 1.34328580e-11
 1.34328580e-11
 1.34328580e-11
 1.34328580e-11
 1.34328580e-11
 1.34328580e-11
 1.34328580e-11
 1.44550875e-08
 1.44550875e-08
 1.44550875e-08
 1.44550875e-08
 1.44550875e-08
 1.44550875e-08
 1.05660872e-08
 1.05660872e-08
 1.05660872e-08
 1.05660872e-08
 1.05660872e-08
 1.05660872e-08
 1.05660872e-08
 3.57452331e-09
 3.57452331e-09
 3.57452331e-09
 3.57452331e-09
 3.57452331e-09
 3.57452331e-09
 3.57452331e-09
 3.57452331e-09
 3.57452331e-09
 3.57452331e-09
 3.57452331e-09
 3.57452331e-09
 3.57452331e-09
 3.57452331e-09
 3.57452331e-09
 2.43209417e-09
 2.43209417e-09
 2.43209417e-09
 2.43209417e-09
 2.43209417e-09
 2.43209417e-09
 2.43209417e-09
 2.43209417e-09
 2.43209417e-09
 2.43209417e-09
 2.43209417e-09
 3.64798061e-09
 3.64798061e-09
 2.98249614e-09
 2.98249614e-09
 2.98249614e-09
 2.98249614e-09
 2.98249614e-09
 2.98249614e-09
 2.98249614e-09
 1.73476924e-09
 1.73476924e-09
 1.73476924e-09
 1.73476924e-09
 1.73476924e-09
 1.07370095e-09
 1.07370095e-09
 8.85419798e-10
 8.85419798e-10
 6.42361835e-10
)
)
1
(
101
(
 3.09684176e-12
 3.09684176e-12
 3.09684176e-12
 3.09684176e-12
 3.09684176e-12
 3.09684176e-12
 3.09684176e-12
 3.09684176e-12
 3.09684176e-12
 3.09684176e-12
 3.09684176e-12
 3.09684176e-12
 3.09684176e-12
 3.09684176e-12
 3.09684176e-12
 3.09684176e-12
 3.09684176e-12
 3.09684176e-12
 3.09684176e-12
 3.09684176e-12
 3.09684176e-12
 3.09684176e-12
 3.09684176e-12
 3.09684176e-12
 3.09684176e-12
 3.09684176e-12
 1.34328580e-11
 1.34328580e-11
 1.34328580e-11
 1.34328580e-11
 1.34328580e-11
 1.34328580e-11
 1.34328580e-11
 1.34328580e-11
 1.34328580e-11
 1.34328580e-11
 1.34328580e-11
 1.34328580e-11
 1.34328580e-11
 1.34328580e-11
 1.34328580e-11
 1.34328580e-11
 1.34328580e-11
 1.44550875e-08
 1.44550875e-08
 1.44550875e-08
 1.44550875e-08
 1.44550875e-08
 1.44550875e-08
 1.44550875e-08
 1.05660872e-08
 1.05660872e-08
 1.05660872e-08
 1.05660872e-08
 1.05660872e-08
 1.05660872e-08
 1.05660872e-08
 3.57452331e-09
 3.57452331e-09
 3.57452331e-09
 3.57452331e-09
 3.57452331e-09
 3.57452331e-09
 3.57452331e-09
 3.57452331e-09
 3.57452331e-09
 3.57452331e-09
 3.57452331e-09
 3.57452331e-09
 3.57452331e-09
 3.57452331e-09
 3.57452331e-09
 2.43209417e-09
 2.43209417e-09
 2.43209417e-09
 2.43209417e-09
 2.43209417e-09
 2.43209417e-09
 2.43209417e-09
 2.43209417e-09
 2.43209417e-09
 2.43209417e-09
 2.43209417e-09
 3.64798061e-09
 3.64798061e-09
 3.64798061e-09
 2.98249614e-09
 2.98249614e-09
 2.98249614e-09
 2.98249614e-09
 2.98249614e-09
 2.98249614e-09
 2.05680318e-09
 1.73476924e-09
 1.73476924e-09
 1.73476924e-09
 1.29491831e-09
 1.29491831e-09
 1.29491831e-09
 8.85419798e-10
 8.85419798e-10
)
)
1
(
101
(
 3.15437206e-12
 3.15437206e-12
 3.15437206e-12
 3.15437206e-12
 3.15437206e-12
 3.15437206e-12
 3.15437206e-12
 3.15437206e-12
 3.15437206e-12
 3.15437206e-12
 3.15437206e-12
 3.15437206e-12
 3.15437206e-12
 3.15437206e-12
 3.15437206e-12
 3.15437206e-12
 3.15437206e-12
 3.15437206e-12
 3.15437206e-12
 1.34328580e-11
 1.34328580e-11
 1.34328580e-11
 1.34328580e-11
 1.34328580e-11
 1.34328580e-11
 1.34328580e-11
 1.34328580e-11
 1.34328580e-11
 1.34328580e-11
 1.34328580e-11
 1.34328580e-11
 1.34328580e-11
 1.34328580e-11
 1.34328580e-11
 1.34328580e-11
 1.34328580e-11
 1.34328580e-11
 1.34328580e-11
 1.34328580e-11
 1.34328580e-11
 1.34328580e-11
 1.34328580e-11
 1.44550875e-08
 1.44550875e-08
 1.44550875e-08
 1.44550875e-08
 1.44550875e-08
 1.44550875e-08
 1.44550875e-08
 1.44550875e-08
 1.44550875e-08
 1.05660872e-08
 1.05660872e-08
 1.05660872e-08
 1.05660872e-08
 1.05660872e-08
 1.05660872e-08
 1.05660872e-08
 1.05660872e-08
 3.57452331e-09
 3.57452331e-09
 3.57452331e-09
 3.57452331e-09
 3.57452331e-09
 3.57452331e-09
 3.57452331e-09
 3.57452331e-09
 3.57452331e-09
 3.57452331e-09
 3.57452331e-09
 3.57452331e-09
 3.57452331e-09
 3.57452331e-09
 2.43209417e-09
 2.43209417e-09
 2.43209417e-09
 2.43209417e-09
 2.43209417e-09
 2.43209417e-09
 2.43209417e-09
 2.43209417e-09
 2.43209417e-09
 2.43209417e-09
 2.43209417e-09
 3.64798061e-09
 3.64798061e-09
 3.64798061e-09
 2.98249614e-09
 2.98249614e-09
 2.98249614e-09
 2.98249614e-09
 2.98249614e-09
 2.98249614e-09
 2.05680318e-09
 2.05680318e-09
 1.59157314e-09
 1.59157314e-09
 1.29491831e-09
 1.29491831e-09
 1.29491831e-09
 1.29491831e-09
)
)
1
(
101
(
 4.05782321e-12
 4.05782321e-12
 4.05782321e-12
 4.05782321e-12
 4.05782321e-12
 4.05782321e-12
 4.05782321e-12
 4.05782321e-12
 4.05782321e-12
 4.05782321e-12
 4.05782321e-12
 4.05782321e-12
 4.05782321e-12
 4.05782321e-12
 1.34328580e-11
 1.34328580e-11
 1.34328580e-11
 1.34328580e-11
 1.34328580e-11
 1.34328580e-11
 1.34328580e-11
 1.34328580e-11
 1.34328580e-11
 1.34328580e-11
 1.34328580e-11
 1.34328580e-11
 1.34328580e-11
 1.34328580e-11
 1.34328580e-11
 1.34328580e-11
 1.34328580e-11
 1.34328580e-11
 1.34328580e-11
 1.34328580e-11
 1.34328580e-11
 1.34328580e-11
 1.34328580e-11
 1.34328580e-11
 1.34328580e-11
 1.34328580e-11
 1.34328580e-11
 1.34328580e-11
 1.44550875e-08
 1.44550875e-08
 1.44550875e-08
 1.44550875e-08
 1.44550875e-08
 1.44550875e-08
 1.44550875e-08
 1.44550875e-08
 1.44550875e-08
 1.44550875e-08
 1.05660872e-08
 1.05660872e-08
 1.05660872e-08
 1.05660872e-08
 1.05660872e-08
 1.05660872e-08
 1.05660872e-08
 1.05660872e-08
 3.57452331e-09
 3.57452331e-09
 3.57452331e-09
 3.57452331e-09
 3.57452331e-09
 3.57452331e-09
 3.57452331e-09
 3.57452331e-09
 3.57452331e-09
 3.57452331e-09
 3.57452331e-09
 3.57452331e-09
 3.57452331e-09
 3.57452331e-09
 3.57452331e-09
 2.43209417e-09
 2.43209417e-09
 2.43209417e-09
 2.43209417e-09
 2.43209417e-09
 2.43209417e-09
 2.43209417e-09
 2.43209417e-09
 2.43209417e-09
 2.43209417e-09
 3.64798061e-09
 3.64798061e-09
 3.64798061e-09
 3.64798061e-09
 2.98249614e-09
 2.98249614e-09
 2.98249614e-09
 2.98249614e-09
 2.98249614e-09
 2.05680318e-09
 2.05680318e-09
 1.59157314e-09
 1.59157314e-09
 1.29491831e-09
 1.29491831e-09
 1.29491831e-09
)
)
1
(
101
(
 4.52239565e-12
 4.52239565e-12
 4.52239565e-12
 4.52239565e-12
 4.52239565e-12
 4.52239565e-12
 4.52239565e-12
 4.52239565e-12
 4.52239565e-12
 1.34328580e-11
 1.34328580e-11
 1.34328580e-11
 1.34328580e-11
 1.34328580e-11
 1.34328580e-11
 1.34328580e-11
 1.34328580e-11
 1.34328580e-11
 1.34328580e-11
 1.34328580e-11
 1.34328580e-11
 1.34328580e-11
 1.34328580e-11
 1.34328580e-11
 1.34328580e-11
 1.34328580e-11
 1.34328580e-11
 1.34328580e-11
 1.34328580e-11
 1.34328580e-11
 1.34328580e-11
 1.34328580e-11
 1.34328580e-11
 1.34328580e-11
 1.34328580e-11
 1.34328580e-11
 1.34328580e-11
 1.34328580e-11
 1.34328580e-11
 1.34328580e-11
 1.34328580e-11
 1.34328580e-11
 1.44550875e-08
 1.44550875e-08
 1.44550875e-08
 1.44550875e-08
 1.44550875e-08
 1.44550875e-08
 1.44550875e-08
 1.44550875e-08
 1.44550875e-08
 1.44550875e-08
 1.44550875e-08
 1.44550875e-08
 1.05660872e-08
 1.05660872e-08
 1.05660872e-08
 1.05660872e-08
 1.05660872e-08
 1.05660872e-08
 1.05660872e-08
 1.05660872e-08
 3.57452331e-09
 3.57452331e-09
 3.57452331e-09
 3.57452331e-09
 3.57452331e-09
 3.57452331e-09
 3.57452331e-09
 3.57452331e-09
 3.57452331e-09
 3.57452331e-09
 3.57452331e-09
 3.57452331e-09
 3.57452331e-09
 3.57452331e-09
 2.43209417e-09
 2.43209417e-09
 2.43209417e-09
 2.43209417e-09
 2.43209417e-09
 2.43209417e-09
 2.43209417e-09
 2.43209417e-09
 2.43209417e-09
 2.43209417e-09
 3.64798061e-09
 3.64798061e-09
 3.64798061e-09
 3.64798061e-09
 3.35205928e-09
 2.98249614e-09
 2.98249614e-09
 2.98249614e-09
 2.98249614e-09
 2.05680318e-09
 2.05680318e-09
 1.59157314e-09
 1.59157314e-09
 1.29491831e-09
 1.29491831e-09
)
)
1
(
101
(
 4.76536668e-12
 4.76536668e-12
 4.76536668e-12
 4.76536668e-12
 4.76536668e-12
 4.76536668e-12
 1.34328580e-11
 1.34328580e-11
 1.34328580e-11
 1.34328580e-11
 1.34328580e-11
 1.34328580e-11
 1.34328580e-11
 1.34328580e-11
 1.34328580e-11
 1.34328580e-11
 1.34328580e-11
 1.34328580e-11
 1.34328580e-11
 1.34328580e-11
 1.34328580e-11
 1.34328580e-11
 1.34328580e-11
 1.34328580e-11
 1.34328580e-11
 1.34328580e-11
 1.34328580e-11
 1.34328580e-11
 1.34328580e-11
 1.34328580e-11
 1.34328580e-11
 1.34328580e-11
 1.34328580e-11
 1.34328580e-11
 1.34328580e-11
 1.34328580e-11
 1.34328580e-11
 1.34328580e-11
 1.34328580e-11
 1.34328580e-11
 1.34328580e-11
 1.34328580e-11
 1.44550875e-08
 1.44550875e-08
 1.44550875e-08
 1.44550875e-08
 1.44550875e-08
 1.44550875e-08
 1.44550875e-08
 1.44550875e-08
 1.44550875e-08
 1.44550875e-08
 1.44550875e-08
 1.44550875e-08
 1.44550875e-08
 1.05660872e-08
 1.05660872e-08
 1.05660872e-08
 1.05660872e-08
 1.05660872e-08
 1.05660872e-08
 1.05660872e-08
 1.05660872e-08
 3.57452331e-09
 3.57452331e-09
 3.57452331e-09
 3.57452331e-09
 3.57452331e-09
 3.57452331e-09
 3.57452331e-09
 3.57452331e-09
 3.57452331e-09
 3.57452331e-09
 3.57452331e-09
 3.57452331e-09
 3.57452331e-09
 3.57452331e-09
 2.43209417e-09
 2.43209417e-09
 2.43209417e-09
 2.43209417e-09
 2.43209417e-09
 2.43209417e-09
 2.43209417e-09
 2.43209417e-09
 2.43209417e-09
 2.43209417e-09
 3.64798061e-09
 3.64798061e-09
 3.64798061e-09
 3.64798061e-09
 3.35205928e-09
 3.35205928e-09
 2.24445284e-09
 2.24445284e-09
 2.24445284e-09
 2.05680318e-09
 2.05680318e-09
 1.59157314e-09
 1.59157314e-09
 1.29491831e-09
)
)
1
(
101
(
 5.77697513e-12
 5.77697513e-12
 5.77697513e-12
 1.34328580e-11
 1.34328580e-11
 1.34328580e-11
 1.34328580e-11
 1.34328580e-11
 1.34328580e-11
 1.34328580e-11
 1.34328580e-11
 1.34328580e-11
 1.34328580e-11
 1.34328580e-11
 1.34328580e-11
 1.34328580e-11
 1.34328580e-11
 1.34328580e-11
 1.34328580e-11
 1.34328580e-11
 1.34328580e-11
 1.34328580e-11
 1.34328580e-11
 1.34328580e-11
 1.34328580e-11
 1.34328580e-11
 1.34328580e-11
 1.34328580e-11
 1.34328580e-11
 1.34328580e-11
 1.34328580e-11
 1.34328580e-11
 1.34328580e-11
 1.34328580e-11
 1.34328580e-11
 1.34328580e-11
 1.34328580e-11
 1.34328580e-11
 1.34328580e-11
 1.34328580e-11
 1.34328580e-11
 1.65505962e-08
 1.44550875e-08
 1.44550875e-08
 1.44550875e-08
 1.44550875e-08
 1.44550875e-08
 1.44550875e-08
 1.44550875e-08
 1.44550875e-08
 1.44550875e-08
 1.44550875e-08
 1.44550875e-08
 1.44550875e-08
 1.44550875e-08
 1.44550875e-08
 1.05660872e-08
 1.05660872e-08
 1.05660872e-08
 1.05660872e-08
 1.05660872e-08
 1.05660872e-08
 1.05660872e-08
 1.05660872e-08
 1.05660872e-08
 3.57452331e-09
 3.57452331e-09
 3.57452331e-09
 3.57452331e-09
 3.57452331e-09
 3.57452331e-09
 3.57452331e-09
 3.57452331e-09
 3.57452331e-09
 3.57452331e-09
 3.57452331e-09
 3.57452331e-09
 3.57452331e-09
 2.43209417e-09
 2.43209417e-09
 2.43209417e-09
 2.43209417e-09
 2.43209417e-09
 2.43209417e-09
 2.43209417e-09
 2.43209417e-09
 2.43209417e-09
 2.43209417e-09
 3.64798061e-09
 3.64798061e-09
 3.64798061e-09
 3.64798061e-09
 3.35205928e-09
 3.35205928e-09
 2.24445284e-09
 2.24445284e-09
 2.24445284e-09
 2.24445284e-09
 2.05680318e-09
 1.59157314e-09
 1.59157314e-09
)
)
1
(
101
(
 4.94441211e-12
 4.94441211e-12
 1.34328580e-11
 1.34328580e-11
 1.34328580e-11
 1.34328580e-11
 1.34328580e-11
 1.34328580e-11
 1.34328580e-11
 1.34328580e-11
 1.34328580e-11
 1.34328580e-11
 1.34328580e-11
 1.34328580e-11
 1.34328580e-11
 1.34328580e-11
 1.34328580e-11
 1.34328580e-11
 1.34328580e-11
 1.34328580e-11
 1.34328580e-11
 1.34328580e-11
 1.34328580e-11
 1.34328580e-11
 1.34328580e-11
 1.34328580e-11
 1.34328580e-11
 1.34328580e-11
 1.34328580e-11
 1.34328580e-11
 1.34328580e-11
 1.34328580e-11
 1.34328580e-11
 1.34328580e-11
 1.34328580e-11
 1.34328580e-11
 1.34328580e-11
 1.34328580e-11
 1.34328580e-11
 1.34328580e-11
 1.34328580e-11
 1.65505962e-08
 1.65505962e-08
 1.44550875e-08
 1.44550875e-08
 1.44550875e-08
 1.44550875e-08
 1.44550875e-08
 1.44550875e-08
 1.44550875e-08
 1.44550875e-08
 1.44550875e-08
 1.44550875e-08
 1.44550875e-08
 1.44550875e-08
 1.44550875e-08
 1.44550875e-08
 1.05660872e-08
 1.05660872e-08
 1.05660872e-08
 1.05660872e-08
 1.05660872e-08
 1.05660872e-08
 1.05660872e-08
 1.05660872e-08
 1.05660872e-08
 3.57452331e-09
 3.57452331e-09
 3.57452331e-09
 3.57452331e-09
 3.57452331e-09
 3.57452331e-09
 3.57452331e-09
 3.57452331e-09
 3.57452331e-09
 3.57452331e-09
 3.57452331e-09
 3.57452331e-09
 3.57452331e-09
 3.57452331e-09
 2.43209417e-09
 2.43209417e-09
 2.43209417e-09
 2.43209417e-09
 2.43209417e-09
 2.43209417e-09
 2.43209417e-09
 2.43209417e-09
 4.22242190e-09
 3.64798061e-09
 3.64798061e-09
 3.64798061e-09
 1.89015520e-09
 1.89015520e-09
 1.89015520e-09
 2.24445284e-09
 2.24445284e-09
 2.24445284e-09
 2.24445284e-09
 2.24445284e-09
 1.59157314e-09
)
)
1
(
101
(
 1.31660234e-13
 1.34328580e-11
 1.34328580e-11
 1.34328580e-11
 1.34328580e-11
 1.34328580e-11
 1.34328580e-11
 1.34328580e-11
 1.34328580e-11
 1.34328580e-11
 1.34328580e-11
 1.34328580e-11
 1.34328580e-11
 1.34328580e-11
 1.34328580e-11
 1.34328580e-11
 1.34328580e-11
 1.34328580e-11
 1.34328580e-11
 1.34328580e-11
 1.34328580e-11
 1.34328580e-11
 1.34328580e-11
 1.34328580e-11
 1.34328580e-11
 1.34328580e-11
 1.34328580e-11
 1.34328580e-11
 1.34328580e-11
 1.34328580e-11
 1.34328580e-11
 1.34328580e-11
 1.34328580e-11
 1.34328580e-11
 1.34328580e-11
 1.34328580e-11
 1.34328580e-11
 1.34328580e-11
 1.34328580e-11
 1.34328580e-11
 1.65505962e-08
 1.65505962e-08
 1.65505962e-08
 1.65505962e-08
 1.44550875e-08
 1.44550875e-08
 1.44550875e-08
 1.44550875e-08
 1.44550875e-08
 1.44550875e-08
 1.44550875e-08
 1.44550875e-08
 1.44550875e-08
 1.44550875e-08
 1.44550875e-08
 1.44550875e-08
 1.44550875e-08
 1.44550875e-08
 1.05660872e-08
 1.05660872e-08
 1.05660872e-08
 1.05660872e-08
 1.05660872e-08
 1.05660872e-08
 1.05660872e-08
 1.05660872e-08
 1.05660872e-08
 1.05660872e-08
 3.57452331e-09
 3.57452331e-09
 3.57452331e-09
 3.57452331e-09
 3.57452331e-09
 3.57452331e-09
 3.57452331e-09
 3.57452331e-09
 3.57452331e-09
 3.57452331e-09
 3.57452331e-09
 3.57452331e-09
 3.57452331e-09
 6.07341564e-09
 2.43209417e-09
 2.43209417e-09
 2.43209417e-09
 2.43209417e-09
 2.43209417e-09
 2.43209417e-09
 2.43209417e-09
 4.22242190e-09
 4.22242190e-09
 3.71239071e-09
 3.71239071e-09
 1.89015520e-09
 1.89015520e-09
 1.89015520e-09
 1.89015520e-09
 2.24445284e-09
 2.24445284e-09
 2.24445284e-09
 2.24445284e-09
)
)
1
(
101
(
 1.31660234e-13
 7.36017833e-12
 7.36017833e-12
 7.36017833e-12
 7.36017833e-12
 7.36017833e-12
 7.36017833e-12
 7.36017833e-12
 7.36017833e-12
 7.36017833e-12
 7.36017833e-12
 7.36017833e-12
 7.36017833e-12
 7.36017833e-12
 7.36017833e-12
 7.36017833e-12
 7.36017833e-12
 7.36017833e-12
 7.36017833e-12
 7.36017833e-12
 7.36017833e-12
 7.36017833e-12
 7.36017833e-12
 7.36017833e-12
 7.36017833e-12
 7.36017833e-12
 7.36017833e-12
 7.36017833e-12
 7.36017833e-12
 7.36017833e-12
 7.36017833e-12
 7.36017833e-12
 7.36017833e-12
 7.36017833e-12
 7.36017833e-12
 7.36017833e-12
 7.36017833e-12
 7.36017833e-12
 7.36017833e-12
 7.36017833e-12
 1.65505962e-08
 1.65505962e-08
 1.65505962e-08
 1.65505962e-08
 1.65505962e-08
 1.44550875e-08
 1.44550875e-08
 1.44550875e-08
 1.44550875e-08
 1.44550875e-08
 1.44550875e-08
 1.44550875e-08
 1.44550875e-08
 1.44550875e-08
 1.44550875e-08
 1.44550875e-08
 1.44550875e-08
 1.44550875e-08
 1.44550875e-08
 1.05660872e-08
 1.05660872e-08
 1.05660872e-08
 1.05660872e-08
 1.05660872e-08
 1.05660872e-08
 1.05660872e-08
 1.05660872e-08
 1.05660872e-08
 1.05660872e-08
 3.57452331e-09
 3.57452331e-09
 3.57452331e-09
 3.57452331e-09
 3.57452331e-09
 3.57452331e-09
 3.57452331e-09
 3.57452331e-09
 3.57452331e-09
 3.57452331e-09
 3.57452331e-09
 3.57452331e-09
 3.57452331e-09
 6.07341564e-09
 6.07341564e-09
 2.43209417e-09
 2.43209417e-09
 2.43209417e-09
 2.43209417e-09
 2.43209417e-09
 4.22242190e-09
 4.22242190e-09
 4.22242190e-09
 3.71239071e-09
 3.71239071e-09
 1.89015520e-09
 1.89015520e-09
 1.89015520e-09
 1.89015520e-09
 1.89015520e-09
 2.24445284e-09
 2.24445284e-09
)
)
1
(
101
(
 9.15361857e-12
 9.15361857e-12
 9.15361857e-12
 9.15361857e-12
 9.15361857e-12
 9.15361857e-12
 9.15361857e-12
 9.15361857e-12
 9.15361857e-12
 9.15361857e-12
 9.15361857e-12
 9.15361857e-12
 9.15361857e-12
 9.15361857e-12
 9.15361857e-12
 9.15361857e-12
 9.15361857e-12
 9.15361857e-12
 9.15361857e-12
 9.15361857e-12
 9.15361857e-12
 9.15361857e-12
 9.15361857e-12
 9.15361857e-12
 9.15361857e-12
 9.15361857e-12
 9.15361857e-12
 9.15361857e-12
 9.15361857e-12
 9.15361857e-12
 9.15361857e-12
 9.15361857e-12
 9.15361857e-12
 9.15361857e-12
 9.15361857e-12
 9.15361857e-12
 9.15361857e-12
 9.15361857e-12
 9.15361857e-12
 9.15361857e-12
 1.65505962e-08
 1.65505962e-08
 1.65505962e-08
 1.65505962e-08
 1.65505962e-08
 1.65505962e-08
 1.44550875e-08
 1.44550875e-08
 1.44550875e-08
 1.44550875e-08
 1.44550875e-08
 1.44550875e-08
 1.44550875e-08
 1.44550875e-08
 1.44550875e-08
 1.44550875e-08
 1.44550875e-08
 1.44550875e-08
 1.44550875e-08
 1.44550875e-08
 1.44550875e-08
 1.05660872e-08
 1.05660872e-08
 1.05660872e-08
 1.05660872e-08
 1.05660872e-08
 1.05660872e-08
 1.05660872e-08
 1.05660872e-08
 1.05660872e-08
 1.05660872e-08
 3.57452331e-09
 3.57452331e-09
 3.57452331e-09
 3.57452331e-09
 3.57452331e-09
 3.57452331e-09
 3.57452331e-09
 3.57452331e-09
 3.57452331e-09
 3.57452331e-09
 3.57452331e-09
 3.57452331e-09
 6.07341564e-09
 6.07341564e-09
 6.07341564e-09
 2.43209417e-09
 2.43209417e-09
 2.43209417e-09
 2.43209417e-09
 4.22242190e-09
 4.22242190e-09
 4.22242190e-09
 3.71239071e-09
 3.71239071e-09
 1.89015520e-09
 1.89015520e-09
 1.89015520e-09
 1.89015520e-09
 1.89015520e-09
 1.89015520e-09
)
)
1
(
101
(
 1.05426645e-11
 1.05426645e-11
 1.05426645e-11
 1.05426645e-11
 1.05426645e-11
 1.05426645e-11
 1.05426645e-11
 1.05426645e-11
 1.05426645e-11
 1.05426645e-11
 1.05426645e-11
 1.05426645e-11
 1.05426645e-11
 1.05426645e-11
 1.05426645e-11
 1.05426645e-11
 1.05426645e-11
 1.05426645e-11
 1.05426645e-11
 1.05426645e-11
 1.05426645e-11
 1.05426645e-11
 1.05426645e-11
 1.05426645e-11
 1.05426645e-11
 1.05426645e-11
 1.05426645e-11
 1.05426645e-11
 1.05426645e-11
 1.05426645e-11
 1.05426645e-11
 1.05426645e-11
 1.05426645e-11
 1.05426645e-11
 1.05426645e-11
 1.05426645e-11
 1.05426645e-11
 1.05426645e-11
 1.05426645e-11
 1.65505962e-08
 1.65505962e-08
 1.65505962e-08
 1.65505962e-08
 1.65505962e-08
 1.65505962e-08
 1.65505962e-08
 1.65505962e-08
 1.65505962e-08
 1.44550875e-08
 1.44550875e-08
 1.44550875e-08
 1.44550875e-08
 1.44550875e-08
 1.44550875e-08
 1.44550875e-08
 1.44550875e-08
 1.44550875e-08
 1.44550875e-08
 1.44550875e-08
 1.44550875e-08
 1.44550875e-08
 1.44550875e-08
 1.05660872e-08
 1.05660872e-08
 1.05660872e-08
 1.05660872e-08
 1.05660872e-08
 1.05660872e-08
 1.05660872e-08
 1.05660872e-08
 1.05660872e-08
 1.05660872e-08
 3.57452331e-09
 3.57452331e-09
 3.57452331e-09
 3.57452331e-09
 3.57452331e-09
 3.57452331e-09
 3.57452331e-09
 3.57452331e-09
 3.57452331e-09
 3.57452331e-09
 3.57452331e-09
 3.57452331e-09
 6.07341564e-09
 6.07341564e-09
 6.07341564e-09
 6.07341564e-09
 5.01867835e-09
 5.01867835e-09
 5.01867835e-09
 4.22242190e-09
 4.22242190e-09
 4.22242190e-09
 3.71239071e-09
 3.71239071e-09
 1.89015520e-09
 1.89015520e-09
 1.89015520e-09