/*--------------------------------*- C++ -*----------------------------------*\
| =========                 |                                                 |
| \\      /  F ield        | OpenFOAM: The Open Source CFD Toolbox           |
|  \\    /   O peration    | Version:  7                                     |
|   \\  /    A nd          | Web:      http://www.OpenFOAM.com               |
|    \\/     M anipulation |                                                 |
\*---------------------------------------------------------------------------*/

FoamFile
{
    version     2.0;
    format      ascii;
    class       dictionary;
    object      Y_HO2_table;
}

Y_HO2_table
2
(
101
(
1
(
101
(
 3.62073991e-09
 3.62073991e-09
 3.62073991e-09
 3.62073991e-09
 3.62073991e-09
 3.62073991e-09
 3.62073991e-09
 3.62073991e-09
 3.62073991e-09
 3.62073991e-09
 3.62073991e-09
 3.62073991e-09
 3.62073991e-09
 3.62073991e-09
 3.62073991e-09
 3.62073991e-09
 3.62073991e-09
 3.62073991e-09
 3.62073991e-09
 3.62073991e-09
 3.62073991e-09
 3.62073991e-09
 3.62073991e-09
 3.62073991e-09
 3.62073991e-09
 3.62073991e-09
 3.62073991e-09
 3.62073991e-09
 3.62073991e-09
 3.62073991e-09
 3.62073991e-09
 3.62073991e-09
 3.62073991e-09
 3.62073991e-09
 3.62073991e-09
 3.62073991e-09
 3.62073991e-09
 3.62073991e-09
 3.62073991e-09
 3.62073991e-09
 3.62073991e-09
 3.62073991e-09
 3.62073991e-09
 3.62073991e-09
 3.62073991e-09
 1.55861597e-08
 1.55861597e-08
 8.92980521e-08
 8.92980521e-08
 8.92980521e-08
 8.92980521e-08
 8.92980521e-08
 8.92980521e-08
 8.92980521e-08
 8.92980521e-08
 8.92980521e-08
 8.92980521e-08
 8.92980521e-08
 8.92980521e-08
 8.92980521e-08
 8.92980521e-08
 8.92980521e-08
 8.92980521e-08
 7.41170180e-08
 7.41170180e-08
 7.41170180e-08
 7.41170180e-08
 7.41170180e-08
 7.41170180e-08
 7.41170180e-08
 7.41170180e-08
 7.41170180e-08
 7.41170180e-08
 7.41170180e-08
 7.41170180e-08
 4.65119768e-09
 4.65119768e-09
 4.65119768e-09
 4.65119768e-09
 4.65119768e-09
 4.65119768e-09
 4.65119768e-09
 6.27238244e-09
 6.27238244e-09
 6.27238244e-09
 6.27238244e-09
 6.27238244e-09
 6.27238244e-09
 4.37335760e-09
 4.37335760e-09
 4.37335760e-09
 4.37335760e-09
 4.37335760e-09
 4.37335760e-09
 4.37335760e-09
 1.06553452e-09
 1.06553452e-09
 1.06553452e-09
 1.06553452e-09
 1.06553452e-09
 1.33631146e-11
)
)
1
(
101
(
 2.11648386e-07
 2.11648386e-07
 2.11648386e-07
 2.11648386e-07
 2.11648386e-07
 2.11648386e-07
 2.11648386e-07
 2.11648386e-07
 2.11648386e-07
 2.11648386e-07
 2.11648386e-07
 2.11648386e-07
 2.11648386e-07
 2.11648386e-07
 2.11648386e-07
 2.11648386e-07
 2.11648386e-07
 2.11648386e-07
 2.11648386e-07
 2.11648386e-07
 2.11648386e-07
 2.11648386e-07
 2.11648386e-07
 2.11648386e-07
 2.11648386e-07
 2.11648386e-07
 2.11648386e-07
 2.11648386e-07
 2.11648386e-07
 2.11648386e-07
 2.11648386e-07
 2.11648386e-07
 2.11648386e-07
 2.11648386e-07
 2.11648386e-07
 2.11648386e-07
 2.11648386e-07
 2.11648386e-07
 2.11648386e-07
 2.11648386e-07
 2.11648386e-07
 2.11648386e-07
 2.11648386e-07
 2.11648386e-07
 2.11648386e-07
 1.55861597e-08
 1.55861597e-08
 1.55861597e-08
 8.92980521e-08
 8.92980521e-08
 8.92980521e-08
 8.92980521e-08
 8.92980521e-08
 8.92980521e-08
 8.92980521e-08
 8.92980521e-08
 8.92980521e-08
 8.92980521e-08
 8.92980521e-08
 8.92980521e-08
 8.92980521e-08
 8.92980521e-08
 8.92980521e-08
 8.92980521e-08
 8.92980521e-08
 7.41170180e-08
 7.41170180e-08
 7.41170180e-08
 7.41170180e-08
 7.41170180e-08
 7.41170180e-08
 7.41170180e-08
 7.41170180e-08
 7.41170180e-08
 7.41170180e-08
 7.41170180e-08
 7.41170180e-08
 4.65119768e-09
 4.65119768e-09
 4.65119768e-09
 4.65119768e-09
 4.65119768e-09
 4.65119768e-09
 6.27238244e-09
 6.27238244e-09
 6.27238244e-09
 6.27238244e-09
 6.27238244e-09
 6.27238244e-09
 6.27238244e-09
 4.37335760e-09
 4.37335760e-09
 4.37335760e-09
 4.37335760e-09
 4.37335760e-09
 4.37335760e-09
 2.40563765e-09
 1.06553452e-09
 1.06553452e-09
 1.06553452e-09
 2.70764503e-10
)
)
1
(
101
(
 5.67795062e-07
 5.67795062e-07
 5.67795062e-07
 5.67795062e-07
 5.67795062e-07
 5.67795062e-07
 5.67795062e-07
 5.67795062e-07
 5.67795062e-07
 5.67795062e-07
 5.67795062e-07
 5.67795062e-07
 5.67795062e-07
 5.67795062e-07
 5.67795062e-07
 5.67795062e-07
 5.67795062e-07
 5.67795062e-07
 5.67795062e-07
 5.67795062e-07
 5.67795062e-07
 5.67795062e-07
 5.67795062e-07
 5.67795062e-07
 5.67795062e-07
 5.67795062e-07
 5.67795062e-07
 5.67795062e-07
 5.67795062e-07
 5.67795062e-07
 5.67795062e-07
 5.67795062e-07
 5.67795062e-07
 5.67795062e-07
 5.67795062e-07
 5.67795062e-07
 5.67795062e-07
 5.67795062e-07
 5.67795062e-07
 5.67795062e-07
 5.67795062e-07
 5.67795062e-07
 5.67795062e-07
 5.67795062e-07
 1.55861597e-08
 1.55861597e-08
 1.55861597e-08
 1.55861597e-08
 1.55861597e-08
 1.55861597e-08
 8.92980521e-08
 8.92980521e-08
 8.92980521e-08
 8.92980521e-08
 8.92980521e-08
 8.92980521e-08
 8.92980521e-08
 8.92980521e-08
 8.92980521e-08
 8.92980521e-08
 8.92980521e-08
 8.92980521e-08
 8.92980521e-08
 8.92980521e-08
 8.92980521e-08
 8.92980521e-08
 7.41170180e-08
 7.41170180e-08
 7.41170180e-08
 7.41170180e-08
 7.41170180e-08
 7.41170180e-08
 7.41170180e-08
 7.41170180e-08
 7.41170180e-08
 7.41170180e-08
 7.41170180e-08
 7.41170180e-08
 4.65119768e-09
 4.65119768e-09
 4.65119768e-09
 4.65119768e-09
 4.65119768e-09
 4.65119768e-09
 4.65119768e-09
 6.27238244e-09
 6.27238244e-09
 6.27238244e-09
 6.27238244e-09
 6.27238244e-09
 6.27238244e-09
 4.37335760e-09
 4.37335760e-09
 4.37335760e-09
 4.37335760e-09
 4.37335760e-09
 4.37335760e-09
 2.40563765e-09
 2.40563765e-09
 8.70757924e-10
 8.70757924e-10
)
)
1
(
101
(
 8.27705896e-07
 8.27705896e-07
 8.27705896e-07
 8.27705896e-07
 8.27705896e-07
 8.27705896e-07
 8.27705896e-07
 8.27705896e-07
 8.27705896e-07
 8.27705896e-07
 8.27705896e-07
 8.27705896e-07
 8.27705896e-07
 8.27705896e-07
 8.27705896e-07
 8.27705896e-07
 8.27705896e-07
 8.27705896e-07
 8.27705896e-07
 8.27705896e-07
 8.27705896e-07
 8.27705896e-07
 8.27705896e-07
 8.27705896e-07
 8.27705896e-07
 8.27705896e-07
 8.27705896e-07
 8.27705896e-07
 8.27705896e-07
 8.27705896e-07
 8.27705896e-07
 8.27705896e-07
 8.27705896e-07
 8.27705896e-07
 8.27705896e-07
 8.27705896e-07
 8.27705896e-07
 8.27705896e-07
 8.27705896e-07
 8.27705896e-07
 8.27705896e-07
 8.27705896e-07
 8.27705896e-07
 8.27705896e-07
 1.36425437e-08
 1.55861597e-08
 1.55861597e-08
 1.55861597e-08
 1.55861597e-08
 1.55861597e-08
 1.55861597e-08
 8.92980521e-08
 8.92980521e-08
 8.92980521e-08
 8.92980521e-08
 8.92980521e-08
 8.92980521e-08
 8.92980521e-08
 8.92980521e-08
 8.92980521e-08
 8.92980521e-08
 8.92980521e-08
 8.92980521e-08
 8.92980521e-08
 8.92980521e-08
 8.92980521e-08
 8.92980521e-08
 7.41170180e-08
 7.41170180e-08
 7.41170180e-08
 7.41170180e-08
 7.41170180e-08
 7.41170180e-08
 7.41170180e-08
 7.41170180e-08
 7.41170180e-08
 7.41170180e-08
 7.41170180e-08
 7.41170180e-08
 8.85163544e-09
 4.65119768e-09
 4.65119768e-09
 4.65119768e-09
 4.65119768e-09
 4.65119768e-09
 4.65119768e-09
 6.27238244e-09
 6.27238244e-09
 6.27238244e-09
 6.27238244e-09
 6.27238244e-09
 6.27238244e-09
 6.27238244e-09
 4.37335760e-09
 4.37335760e-09
 4.37335760e-09
 4.37335760e-09
 4.37335760e-09
 2.40563765e-09
 1.01741222e-11
 1.01741222e-11
)
)
1
(
101
(
 1.47216717e-06
 1.47216717e-06
 1.47216717e-06
 1.47216717e-06
 1.47216717e-06
 1.47216717e-06
 1.47216717e-06
 1.47216717e-06
 1.47216717e-06
 1.47216717e-06
 1.47216717e-06
 1.47216717e-06
 1.47216717e-06
 1.47216717e-06
 1.47216717e-06
 1.47216717e-06
 1.47216717e-06
 1.47216717e-06
 1.47216717e-06
 1.47216717e-06
 1.47216717e-06
 1.47216717e-06
 1.47216717e-06
 1.47216717e-06
 1.47216717e-06
 1.47216717e-06
 1.47216717e-06
 1.47216717e-06
 1.47216717e-06
 1.47216717e-06
 1.47216717e-06
 1.47216717e-06
 1.47216717e-06
 1.47216717e-06
 1.47216717e-06
 1.47216717e-06
 1.47216717e-06
 1.47216717e-06
 1.47216717e-06
 1.47216717e-06
 1.47216717e-06
 1.47216717e-06
 1.47216717e-06
 1.47216717e-06
 1.36425437e-08
 1.36425437e-08
 1.36425437e-08
 1.55861597e-08
 1.55861597e-08
 1.55861597e-08
 1.55861597e-08
 1.55861597e-08
 1.55861597e-08
 8.92980521e-08
 8.92980521e-08
 8.92980521e-08
 8.92980521e-08
 8.92980521e-08
 8.92980521e-08
 8.92980521e-08
 8.92980521e-08
 8.92980521e-08
 8.92980521e-08
 8.92980521e-08
 8.92980521e-08
 8.92980521e-08
 8.92980521e-08
 8.92980521e-08
 7.41170180e-08
 7.41170180e-08
 7.41170180e-08
 7.41170180e-08
 7.41170180e-08
 7.41170180e-08
 7.41170180e-08
 7.41170180e-08
 7.41170180e-08
 7.41170180e-08
 7.41170180e-08
 7.41170180e-08
 8.85163544e-09
 4.65119768e-09
 4.65119768e-09
 4.65119768e-09
 4.65119768e-09
 4.65119768e-09
 4.65119768e-09
 4.65119768e-09
 6.27238244e-09
 6.27238244e-09
 6.27238244e-09
 6.27238244e-09
 6.27238244e-09
 6.27238244e-09
 4.39193211e-09
 4.37335760e-09
 4.37335760e-09
 4.37335760e-09
 8.51365347e-10
 8.51365347e-10
 1.01741222e-11
)
)
1
(
101
(
 1.95591745e-06
 1.95591745e-06
 1.95591745e-06
 1.95591745e-06
 1.95591745e-06
 1.95591745e-06
 1.95591745e-06
 1.95591745e-06
 1.95591745e-06
 1.95591745e-06
 1.95591745e-06
 1.95591745e-06
 1.95591745e-06
 1.95591745e-06
 1.95591745e-06
 1.95591745e-06
 1.95591745e-06
 1.95591745e-06
 1.95591745e-06
 1.95591745e-06
 1.95591745e-06
 1.95591745e-06
 1.95591745e-06
 1.95591745e-06
 1.95591745e-06
 1.95591745e-06
 1.95591745e-06
 1.95591745e-06
 1.95591745e-06
 1.95591745e-06
 1.95591745e-06
 1.95591745e-06
 1.95591745e-06
 1.95591745e-06
 1.95591745e-06
 1.95591745e-06
 1.95591745e-06
 1.95591745e-06
 1.95591745e-06
 1.95591745e-06
 1.95591745e-06
 1.95591745e-06
 2.63787555e-05
 1.36425437e-08
 1.36425437e-08
 1.36425437e-08
 1.36425437e-08
 1.36425437e-08
 1.55861597e-08
 1.55861597e-08
 1.55861597e-08
 1.55861597e-08
 1.55861597e-08
 1.55861597e-08
 8.92980521e-08
 8.92980521e-08
 8.92980521e-08
 8.92980521e-08
 8.92980521e-08
 8.92980521e-08
 8.92980521e-08
 8.92980521e-08
 8.92980521e-08
 8.92980521e-08
 8.92980521e-08
 8.92980521e-08
 8.92980521e-08
 8.92980521e-08
 8.92980521e-08
 8.92980521e-08
 7.41170180e-08
 7.41170180e-08
 7.41170180e-08
 7.41170180e-08
 7.41170180e-08
 7.41170180e-08
 7.41170180e-08
 7.41170180e-08
 7.41170180e-08
 7.41170180e-08
 7.41170180e-08
 8.85163544e-09
 8.85163544e-09
 4.65119768e-09
 4.65119768e-09
 4.65119768e-09
 4.65119768e-09
 4.65119768e-09
 4.65119768e-09
 6.27238244e-09
 6.27238244e-09
 6.27238244e-09
 6.27238244e-09
 6.27238244e-09
 6.27238244e-09
 4.39193211e-09
 4.39193211e-09
 1.98254886e-09
 1.98254886e-09
 8.51365347e-10
 8.51365347e-10
)
)
1
(
101
(
 2.62899511e-06
 2.62899511e-06
 2.62899511e-06
 2.62899511e-06
 2.62899511e-06
 2.62899511e-06
 2.62899511e-06
 2.62899511e-06
 2.62899511e-06
 2.62899511e-06
 2.62899511e-06
 2.62899511e-06
 2.62899511e-06
 2.62899511e-06
 2.62899511e-06
 2.62899511e-06
 2.62899511e-06
 2.62899511e-06
 2.62899511e-06
 2.62899511e-06
 2.62899511e-06
 2.62899511e-06
 2.62899511e-06
 2.62899511e-06
 2.62899511e-06
 2.62899511e-06
 2.62899511e-06
 2.62899511e-06
 2.62899511e-06
 2.62899511e-06
 2.62899511e-06
 2.62899511e-06
 2.62899511e-06
 2.63787555e-05
 2.63787555e-05
 2.63787555e-05
 2.63787555e-05
 2.63787555e-05
 2.63787555e-05
 2.63787555e-05
 2.63787555e-05
 2.63787555e-05
 2.63787555e-05
 1.36425437e-08
 1.36425437e-08
 1.36425437e-08
 1.36425437e-08
 1.36425437e-08
 1.36425437e-08
 1.55861597e-08
 1.55861597e-08
 1.55861597e-08
 1.55861597e-08
 1.55861597e-08
 1.55861597e-08
 1.55861597e-08
 8.92980521e-08
 8.92980521e-08
 8.92980521e-08
 8.92980521e-08
 8.92980521e-08
 8.92980521e-08
 8.92980521e-08
 8.92980521e-08
 8.92980521e-08
 8.92980521e-08
 8.92980521e-08
 8.92980521e-08
 8.92980521e-08
 8.92980521e-08
 8.92980521e-08
 7.41170180e-08
 7.41170180e-08
 7.41170180e-08
 7.41170180e-08
 7.41170180e-08
 7.41170180e-08
 7.41170180e-08
 7.41170180e-08
 7.41170180e-08
 7.41170180e-08
 7.41170180e-08
 8.85163544e-09
 8.85163544e-09
 4.65119768e-09
 4.65119768e-09
 4.65119768e-09
 4.65119768e-09
 4.65119768e-09
 4.65119768e-09
 4.65119768e-09
 6.27238244e-09
 6.27238244e-09
 6.27238244e-09
 6.27238244e-09
 6.27238244e-09
 4.39193211e-09
 4.39193211e-09
 1.98254886e-09
 1.98254886e-09
 8.51365347e-10
)
)
1
(
101
(
 3.92704954e-06
 3.92704954e-06
 3.92704954e-06
 3.92704954e-06
 3.92704954e-06
 3.92704954e-06
 3.92704954e-06
 3.92704954e-06
 3.92704954e-06
 3.92704954e-06
 3.92704954e-06
 3.92704954e-06
 3.92704954e-06
 3.92704954e-06
 3.92704954e-06
 3.92704954e-06
 3.92704954e-06
 3.92704954e-06
 3.92704954e-06
 3.92704954e-06
 3.92704954e-06
 3.92704954e-06
 3.92704954e-06
 3.92704954e-06
 3.92704954e-06
 3.92704954e-06
 2.63787555e-05
 2.63787555e-05
 2.63787555e-05
 2.63787555e-05
 2.63787555e-05
 2.63787555e-05
 2.63787555e-05
 2.63787555e-05
 2.63787555e-05
 2.63787555e-05
 2.63787555e-05
 2.63787555e-05
 2.63787555e-05
 2.63787555e-05
 2.63787555e-05
 2.63787555e-05
 2.63787555e-05
 1.36425437e-08
 1.36425437e-08
 1.36425437e-08
 1.36425437e-08
 1.36425437e-08
 1.36425437e-08
 1.36425437e-08
 1.55861597e-08
 1.55861597e-08
 1.55861597e-08
 1.55861597e-08
 1.55861597e-08
 1.55861597e-08
 1.55861597e-08
 8.92980521e-08
 8.92980521e-08
 8.92980521e-08
 8.92980521e-08
 8.92980521e-08
 8.92980521e-08
 8.92980521e-08
 8.92980521e-08
 8.92980521e-08
 8.92980521e-08
 8.92980521e-08
 8.92980521e-08
 8.92980521e-08
 8.92980521e-08
 8.92980521e-08
 7.41170180e-08
 7.41170180e-08
 7.41170180e-08
 7.41170180e-08
 7.41170180e-08
 7.41170180e-08
 7.41170180e-08
 7.41170180e-08
 7.41170180e-08
 7.41170180e-08
 7.41170180e-08
 8.85163544e-09
 8.85163544e-09
 8.85163544e-09
 4.65119768e-09
 4.65119768e-09
 4.65119768e-09
 4.65119768e-09
 4.65119768e-09
 4.65119768e-09
 7.14235131e-09
 6.27238244e-09
 6.27238244e-09
 6.27238244e-09
 1.75746993e-09
 1.75746993e-09
 1.75746993e-09
 1.98254886e-09
 1.98254886e-09
)
)
1
(
101
(
 4.41385425e-06
 4.41385425e-06
 4.41385425e-06
 4.41385425e-06
 4.41385425e-06
 4.41385425e-06
 4.41385425e-06
 4.41385425e-06
 4.41385425e-06
 4.41385425e-06
 4.41385425e-06
 4.41385425e-06
 4.41385425e-06
 4.41385425e-06
 4.41385425e-06
 4.41385425e-06
 4.41385425e-06
 4.41385425e-06
 4.41385425e-06
 2.63787555e-05
 2.63787555e-05
 2.63787555e-05
 2.63787555e-05
 2.63787555e-05
 2.63787555e-05
 2.63787555e-05
 2.63787555e-05
 2.63787555e-05
 2.63787555e-05
 2.63787555e-05
 2.63787555e-05
 2.63787555e-05
 2.63787555e-05
 2.63787555e-05
 2.63787555e-05
 2.63787555e-05
 2.63787555e-05
 2.63787555e-05
 2.63787555e-05
 2.63787555e-05
 2.63787555e-05
 2.63787555e-05
 1.36425437e-08
 1.36425437e-08
 1.36425437e-08
 1.36425437e-08
 1.36425437e-08
 1.36425437e-08
 1.36425437e-08
 1.36425437e-08
 1.36425437e-08
 1.55861597e-08
 1.55861597e-08
 1.55861597e-08
 1.55861597e-08
 1.55861597e-08
 1.55861597e-08
 1.55861597e-08
 1.55861597e-08
 8.92980521e-08
 8.92980521e-08
 8.92980521e-08
 8.92980521e-08
 8.92980521e-08
 8.92980521e-08
 8.92980521e-08
 8.92980521e-08
 8.92980521e-08
 8.92980521e-08
 8.92980521e-08
 8.92980521e-08
 8.92980521e-08
 8.92980521e-08
 7.41170180e-08
 7.41170180e-08
 7.41170180e-08
 7.41170180e-08
 7.41170180e-08
 7.41170180e-08
 7.41170180e-08
 7.41170180e-08
 7.41170180e-08
 7.41170180e-08
 7.41170180e-08
 8.85163544e-09
 8.85163544e-09
 8.85163544e-09
 4.65119768e-09
 4.65119768e-09
 4.65119768e-09
 4.65119768e-09
 4.65119768e-09
 4.65119768e-09
 7.14235131e-09
 7.14235131e-09
 1.82570711e-09
 1.82570711e-09
 1.75746993e-09
 1.75746993e-09
 1.75746993e-09
 1.75746993e-09
)
)
1
(
101
(
 6.16616728e-06
 6.16616728e-06
 6.16616728e-06
 6.16616728e-06
 6.16616728e-06
 6.16616728e-06
 6.16616728e-06
 6.16616728e-06
 6.16616728e-06
 6.16616728e-06
 6.16616728e-06
 6.16616728e-06
 6.16616728e-06
 6.16616728e-06
 2.63787555e-05
 2.63787555e-05
 2.63787555e-05
 2.63787555e-05
 2.63787555e-05
 2.63787555e-05
 2.63787555e-05
 2.63787555e-05
 2.63787555e-05
 2.63787555e-05
 2.63787555e-05
 2.63787555e-05
 2.63787555e-05
 2.63787555e-05
 2.63787555e-05
 2.63787555e-05
 2.63787555e-05
 2.63787555e-05
 2.63787555e-05
 2.63787555e-05
 2.63787555e-05
 2.63787555e-05
 2.63787555e-05
 2.63787555e-05
 2.63787555e-05
 2.63787555e-05
 2.63787555e-05
 2.63787555e-05
 1.36425437e-08
 1.36425437e-08
 1.36425437e-08
 1.36425437e-08
 1.36425437e-08
 1.36425437e-08
 1.36425437e-08
 1.36425437e-08
 1.36425437e-08
 1.36425437e-08
 1.55861597e-08
 1.55861597e-08
 1.55861597e-08
 1.55861597e-08
 1.55861597e-08
 1.55861597e-08
 1.55861597e-08
 1.55861597e-08
 8.92980521e-08
 8.92980521e-08
 8.92980521e-08
 8.92980521e-08
 8.92980521e-08
 8.92980521e-08
 8.92980521e-08
 8.92980521e-08
 8.92980521e-08
 8.92980521e-08
 8.92980521e-08
 8.92980521e-08
 8.92980521e-08
 8.92980521e-08
 8.92980521e-08
 7.41170180e-08
 7.41170180e-08
 7.41170180e-08
 7.41170180e-08
 7.41170180e-08
 7.41170180e-08
 7.41170180e-08
 7.41170180e-08
 7.41170180e-08
 7.41170180e-08
 8.85163544e-09
 8.85163544e-09
 8.85163544e-09
 8.85163544e-09
 4.65119768e-09
 4.65119768e-09
 4.65119768e-09
 4.65119768e-09
 4.65119768e-09
 7.14235131e-09
 7.14235131e-09
 1.82570711e-09
 1.82570711e-09
 1.75746993e-09
 1.75746993e-09
 1.75746993e-09
)
)
1
(
101
(
 7.35231695e-06
 7.35231695e-06
 7.35231695e-06
 7.35231695e-06
 7.35231695e-06
 7.35231695e-06
 7.35231695e-06
 7.35231695e-06
 7.35231695e-06
 2.63787555e-05
 2.63787555e-05
 2.63787555e-05
 2.63787555e-05
 2.63787555e-05
 2.63787555e-05
 2.63787555e-05
 2.63787555e-05
 2.63787555e-05
 2.63787555e-05
 2.63787555e-05
 2.63787555e-05
 2.63787555e-05
 2.63787555e-05
 2.63787555e-05
 2.63787555e-05
 2.63787555e-05
 2.63787555e-05
 2.63787555e-05
 2.63787555e-05
 2.63787555e-05
 2.63787555e-05
 2.63787555e-05
 2.63787555e-05
 2.63787555e-05
 2.63787555e-05
 2.63787555e-05
 2.63787555e-05
 2.63787555e-05
 2.63787555e-05
 2.63787555e-05
 2.63787555e-05
 2.63787555e-05
 1.36425437e-08
 1.36425437e-08
 1.36425437e-08
 1.36425437e-08
 1.36425437e-08
 1.36425437e-08
 1.36425437e-08
 1.36425437e-08
 1.36425437e-08
 1.36425437e-08
 1.36425437e-08
 1.36425437e-08
 1.55861597e-08
 1.55861597e-08
 1.55861597e-08
 1.55861597e-08
 1.55861597e-08
 1.55861597e-08
 1.55861597e-08
 1.55861597e-08
 8.92980521e-08
 8.92980521e-08
 8.92980521e-08
 8.92980521e-08
 8.92980521e-08
 8.92980521e-08
 8.92980521e-08
 8.92980521e-08
 8.92980521e-08
 8.92980521e-08
 8.92980521e-08
 8.92980521e-08
 8.92980521e-08
 8.92980521e-08
 7.41170180e-08
 7.41170180e-08
 7.41170180e-08
 7.41170180e-08
 7.41170180e-08
 7.41170180e-08
 7.41170180e-08
 7.41170180e-08
 7.41170180e-08
 7.41170180e-08
 8.85163544e-09
 8.85163544e-09
 8.85163544e-09
 8.85163544e-09
 4.39365762e-09
 4.65119768e-09
 4.65119768e-09
 4.65119768e-09
 4.65119768e-09
 7.14235131e-09
 7.14235131e-09
 1.82570711e-09
 1.82570711e-09
 1.75746993e-09
 1.75746993e-09
)
)
1
(
101
(
 8.31380852e-06
 8.31380852e-06
 8.31380852e-06
 8.31380852e-06
 8.31380852e-06
 8.31380852e-06
 2.63787555e-05
 2.63787555e-05
 2.63787555e-05
 2.63787555e-05
 2.63787555e-05
 2.63787555e-05
 2.63787555e-05
 2.63787555e-05
 2.63787555e-05
 2.63787555e-05
 2.63787555e-05
 2.63787555e-05
 2.63787555e-05
 2.63787555e-05
 2.63787555e-05
 2.63787555e-05
 2.63787555e-05
 2.63787555e-05
 2.63787555e-05
 2.63787555e-05
 2.63787555e-05
 2.63787555e-05
 2.63787555e-05
 2.63787555e-05
 2.63787555e-05
 2.63787555e-05
 2.63787555e-05
 2.63787555e-05
 2.63787555e-05
 2.63787555e-05
 2.63787555e-05
 2.63787555e-05
 2.63787555e-05
 2.63787555e-05
 2.63787555e-05
 2.63787555e-05
 1.36425437e-08
 1.36425437e-08
 1.36425437e-08
 1.36425437e-08
 1.36425437e-08
 1.36425437e-08
 1.36425437e-08
 1.36425437e-08
 1.36425437e-08
 1.36425437e-08
 1.36425437e-08
 1.36425437e-08
 1.36425437e-08
 1.55861597e-08
 1.55861597e-08
 1.55861597e-08
 1.55861597e-08
 1.55861597e-08
 1.55861597e-08
 1.55861597e-08
 1.55861597e-08
 8.92980521e-08
 8.92980521e-08
 8.92980521e-08
 8.92980521e-08
 8.92980521e-08
 8.92980521e-08
 8.92980521e-08
 8.92980521e-08
 8.92980521e-08
 8.92980521e-08
 8.92980521e-08
 8.92980521e-08
 8.92980521e-08
 8.92980521e-08
 7.41170180e-08
 7.41170180e-08
 7.41170180e-08
 7.41170180e-08
 7.41170180e-08
 7.41170180e-08
 7.41170180e-08
 7.41170180e-08
 7.41170180e-08
 7.41170180e-08
 8.85163544e-09
 8.85163544e-09
 8.85163544e-09
 8.85163544e-09
 4.39365762e-09
 4.39365762e-09
 2.96798767e-09
 2.96798767e-09
 2.96798767e-09
 7.14235131e-09
 7.14235131e-09
 1.82570711e-09
 1.82570711e-09
 1.75746993e-09
)
)
1
(
101
(
 1.08340558e-05
 1.08340558e-05
 1.08340558e-05
 2.63787555e-05
 2.63787555e-05
 2.63787555e-05
 2.63787555e-05
 2.63787555e-05
 2.63787555e-05
 2.63787555e-05
 2.63787555e-05
 2.63787555e-05
 2.63787555e-05
 2.63787555e-05
 2.63787555e-05
 2.63787555e-05
 2.63787555e-05
 2.63787555e-05
 2.63787555e-05
 2.63787555e-05
 2.63787555e-05
 2.63787555e-05
 2.63787555e-05
 2.63787555e-05
 2.63787555e-05
 2.63787555e-05
 2.63787555e-05
 2.63787555e-05
 2.63787555e-05
 2.63787555e-05
 2.63787555e-05
 2.63787555e-05
 2.63787555e-05
 2.63787555e-05
 2.63787555e-05
 2.63787555e-05
 2.63787555e-05
 2.63787555e-05
 2.63787555e-05
 2.63787555e-05
 2.63787555e-05
 3.74188888e-09
 1.36425437e-08
 1.36425437e-08
 1.36425437e-08
 1.36425437e-08
 1.36425437e-08
 1.36425437e-08
 1.36425437e-08
 1.36425437e-08
 1.36425437e-08
 1.36425437e-08
 1.36425437e-08
 1.36425437e-08
 1.36425437e-08
 1.36425437e-08
 1.55861597e-08
 1.55861597e-08
 1.55861597e-08
 1.55861597e-08
 1.55861597e-08
 1.55861597e-08
 1.55861597e-08
 1.55861597e-08
 1.55861597e-08
 8.92980521e-08
 8.92980521e-08
 8.92980521e-08
 8.92980521e-08
 8.92980521e-08
 8.92980521e-08
 8.92980521e-08
 8.92980521e-08
 8.92980521e-08
 8.92980521e-08
 8.92980521e-08
 8.92980521e-08
 8.92980521e-08
 7.41170180e-08
 7.41170180e-08
 7.41170180e-08
 7.41170180e-08
 7.41170180e-08
 7.41170180e-08
 7.41170180e-08
 7.41170180e-08
 7.41170180e-08
 7.41170180e-08
 8.85163544e-09
 8.85163544e-09
 8.85163544e-09
 8.85163544e-09
 4.39365762e-09
 4.39365762e-09
 2.96798767e-09
 2.96798767e-09
 2.96798767e-09
 2.96798767e-09
 7.14235131e-09
 1.82570711e-09
 1.82570711e-09
)
)
1
(
101
(
 9.96378868e-06
 9.96378868e-06
 2.63787555e-05
 2.63787555e-05
 2.63787555e-05
 2.63787555e-05
 2.63787555e-05
 2.63787555e-05
 2.63787555e-05
 2.63787555e-05
 2.63787555e-05
 2.63787555e-05
 2.63787555e-05
 2.63787555e-05
 2.63787555e-05
 2.63787555e-05
 2.63787555e-05
 2.63787555e-05
 2.63787555e-05
 2.63787555e-05
 2.63787555e-05
 2.63787555e-05
 2.63787555e-05
 2.63787555e-05
 2.63787555e-05
 2.63787555e-05
 2.63787555e-05
 2.63787555e-05
 2.63787555e-05
 2.63787555e-05
 2.63787555e-05
 2.63787555e-05
 2.63787555e-05
 2.63787555e-05
 2.63787555e-05
 2.63787555e-05
 2.63787555e-05
 2.63787555e-05
 2.63787555e-05
 2.63787555e-05
 2.63787555e-05
 3.74188888e-09
 3.74188888e-09
 1.36425437e-08
 1.36425437e-08
 1.36425437e-08
 1.36425437e-08
 1.36425437e-08
 1.36425437e-08
 1.36425437e-08
 1.36425437e-08
 1.36425437e-08
 1.36425437e-08
 1.36425437e-08
 1.36425437e-08
 1.36425437e-08
 1.36425437e-08
 1.55861597e-08
 1.55861597e-08
 1.55861597e-08
 1.55861597e-08
 1.55861597e-08
 1.55861597e-08
 1.55861597e-08
 1.55861597e-08
 1.55861597e-08
 8.92980521e-08
 8.92980521e-08
 8.92980521e-08
 8.92980521e-08
 8.92980521e-08
 8.92980521e-08
 8.92980521e-08
 8.92980521e-08
 8.92980521e-08
 8.92980521e-08
 8.92980521e-08
 8.92980521e-08
 8.92980521e-08
 8.92980521e-08
 7.41170180e-08
 7.41170180e-08
 7.41170180e-08
 7.41170180e-08
 7.41170180e-08
 7.41170180e-08
 7.41170180e-08
 7.41170180e-08
 5.40139678e-09
 8.85163544e-09
 8.85163544e-09
 8.85163544e-09
 6.95469915e-12
 6.95469915e-12
 6.95469915e-12
 2.96798767e-09
 2.96798767e-09
 2.96798767e-09
 2.96798767e-09
 2.96798767e-09
 1.82570711e-09
)
)
1
(
101
(
 1.10598480e-06
 2.63787555e-05
 2.63787555e-05
 2.63787555e-05
 2.63787555e-05
 2.63787555e-05
 2.63787555e-05
 2.63787555e-05
 2.63787555e-05
 2.63787555e-05
 2.63787555e-05
 2.63787555e-05
 2.63787555e-05
 2.63787555e-05
 2.63787555e-05
 2.63787555e-05
 2.63787555e-05
 2.63787555e-05
 2.63787555e-05
 2.63787555e-05
 2.63787555e-05
 2.63787555e-05
 2.63787555e-05
 2.63787555e-05
 2.63787555e-05
 2.63787555e-05
 2.63787555e-05
 2.63787555e-05
 2.63787555e-05
 2.63787555e-05
 2.63787555e-05
 2.63787555e-05
 2.63787555e-05
 2.63787555e-05
 2.63787555e-05
 2.63787555e-05
 2.63787555e-05
 2.63787555e-05
 2.63787555e-05
 2.63787555e-05
 3.74188888e-09
 3.74188888e-09
 3.74188888e-09
 3.74188888e-09
 1.36425437e-08
 1.36425437e-08
 1.36425437e-08
 1.36425437e-08
 1.36425437e-08
 1.36425437e-08
 1.36425437e-08
 1.36425437e-08
 1.36425437e-08
 1.36425437e-08
 1.36425437e-08
 1.36425437e-08
 1.36425437e-08
 1.36425437e-08
 1.55861597e-08
 1.55861597e-08
 1.55861597e-08
 1.55861597e-08
 1.55861597e-08
 1.55861597e-08
 1.55861597e-08
 1.55861597e-08
 1.55861597e-08
 1.55861597e-08
 8.92980521e-08
 8.92980521e-08
 8.92980521e-08
 8.92980521e-08
 8.92980521e-08
 8.92980521e-08
 8.92980521e-08
 8.92980521e-08
 8.92980521e-08
 8.92980521e-08
 8.92980521e-08
 8.92980521e-08
 8.92980521e-08
 1.33133642e-08
 7.41170180e-08
 7.41170180e-08
 7.41170180e-08
 7.41170180e-08
 7.41170180e-08
 7.41170180e-08
 7.41170180e-08
 5.40139678e-09
 5.40139678e-09
 9.48913021e-10
 9.48913021e-10
 6.95469915e-12
 6.95469915e-12
 6.95469915e-12
 6.95469915e-12
 2.96798767e-09
 2.96798767e-09
 2.96798767e-09
 2.96798767e-09
)
)
1
(
101
(
 1.10598480e-06
 1.61388671e-05
 1.61388671e-05
 1.61388671e-05
 1.61388671e-05
 1.61388671e-05
 1.61388671e-05
 1.61388671e-05
 1.61388671e-05
 1.61388671e-05
 1.61388671e-05
 1.61388671e-05
 1.61388671e-05
 1.61388671e-05
 1.61388671e-05
 1.61388671e-05
 1.61388671e-05
 1.61388671e-05
 1.61388671e-05
 1.61388671e-05
 1.61388671e-05
 1.61388671e-05
 1.61388671e-05
 1.61388671e-05
 1.61388671e-05
 1.61388671e-05
 1.61388671e-05
 1.61388671e-05
 1.61388671e-05
 1.61388671e-05
 1.61388671e-05
 1.61388671e-05
 1.61388671e-05
 1.61388671e-05
 1.61388671e-05
 1.61388671e-05
 1.61388671e-05
 1.61388671e-05
 1.61388671e-05
 1.61388671e-05
 3.74188888e-09
 3.74188888e-09
 3.74188888e-09
 3.74188888e-09
 3.74188888e-09
 1.36425437e-08
 1.36425437e-08
 1.36425437e-08
 1.36425437e-08
 1.36425437e-08
 1.36425437e-08
 1.36425437e-08
 1.36425437e-08
 1.36425437e-08
 1.36425437e-08
 1.36425437e-08
 1.36425437e-08
 1.36425437e-08
 1.36425437e-08
 1.55861597e-08
 1.55861597e-08
 1.55861597e-08
 1.55861597e-08
 1.55861597e-08
 1.55861597e-08
 1.55861597e-08
 1.55861597e-08
 1.55861597e-08
 1.55861597e-08
 8.92980521e-08
 8.92980521e-08
 8.92980521e-08
 8.92980521e-08
 8.92980521e-08
 8.92980521e-08
 8.92980521e-08
 8.92980521e-08
 8.92980521e-08
 8.92980521e-08
 8.92980521e-08
 8.92980521e-08
 8.92980521e-08
 1.33133642e-08
 1.33133642e-08
 7.41170180e-08
 7.41170180e-08
 7.41170180e-08
 7.41170180e-08
 7.41170180e-08
 5.40139678e-09
 5.40139678e-09
 5.40139678e-09
 9.48913021e-10
 9.48913021e-10
 6.95469915e-12
 6.95469915e-12
 6.95469915e-12
 6.95469915e-12
 6.95469915e-12
 2.96798767e-09
 2.96798767e-09
)
)
1
(
101
(
 2.01669969e-05
 2.01669969e-05
 2.01669969e-05
 2.01669969e-05
 2.01669969e-05
 2.01669969e-05
 2.01669969e-05
 2.01669969e-05
 2.01669969e-05
 2.01669969e-05
 2.01669969e-05
 2.01669969e-05
 2.01669969e-05
 2.01669969e-05
 2.01669969e-05
 2.01669969e-05
 2.01669969e-05
 2.01669969e-05
 2.01669969e-05
 2.01669969e-05
 2.01669969e-05
 2.01669969e-05
 2.01669969e-05
 2.01669969e-05
 2.01669969e-05
 2.01669969e-05
 2.01669969e-05
 2.01669969e-05
 2.01669969e-05
 2.01669969e-05
 2.01669969e-05
 2.01669969e-05
 2.01669969e-05
 2.01669969e-05
 2.01669969e-05
 2.01669969e-05
 2.01669969e-05
 2.01669969e-05
 2.01669969e-05
 2.01669969e-05
 3.74188888e-09
 3.74188888e-09
 3.74188888e-09
 3.74188888e-09
 3.74188888e-09
 3.74188888e-09
 1.36425437e-08
 1.36425437e-08
 1.36425437e-08
 1.36425437e-08
 1.36425437e-08
 1.36425437e-08
 1.36425437e-08
 1.36425437e-08
 1.36425437e-08
 1.36425437e-08
 1.36425437e-08
 1.36425437e-08
 1.36425437e-08
 1.36425437e-08
 1.36425437e-08
 1.55861597e-08
 1.55861597e-08
 1.55861597e-08
 1.55861597e-08
 1.55861597e-08
 1.55861597e-08
 1.55861597e-08
 1.55861597e-08
 1.55861597e-08
 1.55861597e-08
 8.92980521e-08
 8.92980521e-08
 8.92980521e-08
 8.92980521e-08
 8.92980521e-08
 8.92980521e-08
 8.92980521e-08
 8.92980521e-08
 8.92980521e-08
 8.92980521e-08
 8.92980521e-08
 8.92980521e-08
 1.33133642e-08
 1.33133642e-08
 1.33133642e-08
 7.41170180e-08
 7.41170180e-08
 7.41170180e-08
 7.41170180e-08
 5.40139678e-09
 5.40139678e-09
 5.40139678e-09
 9.48913021e-10
 9.48913021e-10
 6.95469915e-12
 6.95469915e-12
 6.95469915e-12
 6.95469915e-12
 6.95469915e-12
 6.95469915e-12
)
)
1
(
101
(
 2.40348617e-05
 2.40348617e-05
 2.40348617e-05
 2.40348617e-05
 2.40348617e-05
 2.40348617e-05
 2.40348617e-05
 2.40348617e-05
 2.40348617e-05
 2.40348617e-05
 2.40348617e-05
 2.40348617e-05
 2.40348617e-05
 2.40348617e-05
 2.40348617e-05
 2.40348617e-05
 2.40348617e-05
 2.40348617e-05
 2.40348617e-05
 2.40348617e-05
 2.40348617e-05
 2.40348617e-05
 2.40348617e-05
 2.40348617e-05
 2.40348617e-05
 2.40348617e-05
 2.40348617e-05
 2.40348617e-05
 2.40348617e-05
 2.40348617e-05
 2.40348617e-05
 2.40348617e-05
 2.40348617e-05
 2.40348617e-05
 2.40348617e-05
 2.40348617e-05
 2.40348617e-05
 2.40348617e-05
 2.40348617e-05
 3.74188888e-09
 3.74188888e-09
 3.74188888e-09
 3.74188888e-09
 3.74188888e-09
 3.74188888e-09
 3.74188888e-09
 3.74188888e-09
 3.74188888e-09
 1.36425437e-08
 1.36425437e-08
 1.36425437e-08
 1.36425437e-08
 1.36425437e-08
 1.36425437e-08
 1.36425437e-08
 1.36425437e-08
 1.36425437e-08
 1.36425437e-08
 1.36425437e-08
 1.36425437e-08
 1.36425437e-08
 1.36425437e-08
 1.55861597e-08
 1.55861597e-08
 1.55861597e-08
 1.55861597e-08
 1.55861597e-08
 1.55861597e-08
 1.55861597e-08
 1.55861597e-08
 1.55861597e-08
 1.55861597e-08
 8.92980521e-08
 8.92980521e-08
 8.92980521e-08
 8.92980521e-08
 8.92980521e-08
 8.92980521e-08
 8.92980521e-08
 8.92980521e-08
 8.92980521e-08
 8.92980521e-08
 8.92980521e-08
 8.92980521e-08
 1.33133642e-08
 1.33133642e-08
 1.33133642e-08
 1.33133642e-08
 8.09343215e-09
 8.09343215e-09
 8.09343215e-09
 5.40139678e-09
 5.40139678e-09
 5.40139678e-09
 9.48913021e-10
 9.48913021e-10
 6.95469915e-12
 6.95469915e-12
 6.95469915e-12