/*--------------------------------*- C++ -*----------------------------------*\
| =========                 |                                                 |
| \\      /  F ield        | OpenFOAM: The Open Source CFD Toolbox           |
|  \\    /   O peration    | Version:  7                                     |
|   \\  /    A nd          | Web:      http://www.OpenFOAM.com               |
|    \\/     M anipulation |                                                 |
\*---------------------------------------------------------------------------*/

FoamFile
{
    version     2.0;
    format      ascii;
    class       dictionary;
    object      Y_N2O_table;
}

Y_N2O_table
2
(
101
(
1
(
101
(
 3.47440527e-11
 3.47440527e-11
 3.47440527e-11
 3.47440527e-11
 3.47440527e-11
 3.47440527e-11
 3.47440527e-11
 3.47440527e-11
 3.47440527e-11
 3.47440527e-11
 3.47440527e-11
 3.47440527e-11
 3.47440527e-11
 3.47440527e-11
 3.47440527e-11
 3.47440527e-11
 3.47440527e-11
 3.47440527e-11
 3.47440527e-11
 3.47440527e-11
 3.47440527e-11
 3.47440527e-11
 3.47440527e-11
 3.47440527e-11
 3.47440527e-11
 3.47440527e-11
 3.47440527e-11
 3.47440527e-11
 3.47440527e-11
 3.47440527e-11
 3.47440527e-11
 3.47440527e-11
 3.47440527e-11
 3.47440527e-11
 3.47440527e-11
 3.47440527e-11
 3.47440527e-11
 3.47440527e-11
 3.47440527e-11
 3.47440527e-11
 3.47440527e-11
 3.47440527e-11
 3.47440527e-11
 3.47440527e-11
 3.47440527e-11
 2.34029666e-08
 2.34029666e-08
 1.55069157e-08
 1.55069157e-08
 1.55069157e-08
 1.55069157e-08
 1.55069157e-08
 1.55069157e-08
 1.55069157e-08
 1.55069157e-08
 1.55069157e-08
 1.55069157e-08
 1.55069157e-08
 1.55069157e-08
 1.55069157e-08
 1.55069157e-08
 1.55069157e-08
 1.55069157e-08
 1.17751407e-08
 1.17751407e-08
 1.17751407e-08
 1.17751407e-08
 1.17751407e-08
 1.17751407e-08
 1.17751407e-08
 1.17751407e-08
 1.17751407e-08
 1.17751407e-08
 1.17751407e-08
 1.17751407e-08
 6.66664587e-09
 6.66664587e-09
 6.66664587e-09
 6.66664587e-09
 6.66664587e-09
 6.66664587e-09
 6.66664587e-09
 4.17726827e-09
 4.17726827e-09
 4.17726827e-09
 4.17726827e-09
 4.17726827e-09
 4.17726827e-09
 2.19529411e-09
 2.19529411e-09
 2.19529411e-09
 2.19529411e-09
 2.19529411e-09
 2.19529411e-09
 2.19529411e-09
 3.67639695e-10
 3.67639695e-10
 3.67639695e-10
 3.67639695e-10
 3.67639695e-10
 3.30898862e-12
)
)
1
(
101
(
 2.31000752e-09
 2.31000752e-09
 2.31000752e-09
 2.31000752e-09
 2.31000752e-09
 2.31000752e-09
 2.31000752e-09
 2.31000752e-09
 2.31000752e-09
 2.31000752e-09
 2.31000752e-09
 2.31000752e-09
 2.31000752e-09
 2.31000752e-09
 2.31000752e-09
 2.31000752e-09
 2.31000752e-09
 2.31000752e-09
 2.31000752e-09
 2.31000752e-09
 2.31000752e-09
 2.31000752e-09
 2.31000752e-09
 2.31000752e-09
 2.31000752e-09
 2.31000752e-09
 2.31000752e-09
 2.31000752e-09
 2.31000752e-09
 2.31000752e-09
 2.31000752e-09
 2.31000752e-09
 2.31000752e-09
 2.31000752e-09
 2.31000752e-09
 2.31000752e-09
 2.31000752e-09
 2.31000752e-09
 2.31000752e-09
 2.31000752e-09
 2.31000752e-09
 2.31000752e-09
 2.31000752e-09
 2.31000752e-09
 2.31000752e-09
 2.34029666e-08
 2.34029666e-08
 2.34029666e-08
 1.55069157e-08
 1.55069157e-08
 1.55069157e-08
 1.55069157e-08
 1.55069157e-08
 1.55069157e-08
 1.55069157e-08
 1.55069157e-08
 1.55069157e-08
 1.55069157e-08
 1.55069157e-08
 1.55069157e-08
 1.55069157e-08
 1.55069157e-08
 1.55069157e-08
 1.55069157e-08
 1.55069157e-08
 1.17751407e-08
 1.17751407e-08
 1.17751407e-08
 1.17751407e-08
 1.17751407e-08
 1.17751407e-08
 1.17751407e-08
 1.17751407e-08
 1.17751407e-08
 1.17751407e-08
 1.17751407e-08
 1.17751407e-08
 6.66664587e-09
 6.66664587e-09
 6.66664587e-09
 6.66664587e-09
 6.66664587e-09
 6.66664587e-09
 4.17726827e-09
 4.17726827e-09
 4.17726827e-09
 4.17726827e-09
 4.17726827e-09
 4.17726827e-09
 4.17726827e-09
 2.19529411e-09
 2.19529411e-09
 2.19529411e-09
 2.19529411e-09
 2.19529411e-09
 2.19529411e-09
 1.25446675e-09
 3.67639695e-10
 3.67639695e-10
 3.67639695e-10
 1.69330585e-10
)
)
1
(
101
(
 6.40099416e-09
 6.40099416e-09
 6.40099416e-09
 6.40099416e-09
 6.40099416e-09
 6.40099416e-09
 6.40099416e-09
 6.40099416e-09
 6.40099416e-09
 6.40099416e-09
 6.40099416e-09
 6.40099416e-09
 6.40099416e-09
 6.40099416e-09
 6.40099416e-09
 6.40099416e-09
 6.40099416e-09
 6.40099416e-09
 6.40099416e-09
 6.40099416e-09
 6.40099416e-09
 6.40099416e-09
 6.40099416e-09
 6.40099416e-09
 6.40099416e-09
 6.40099416e-09
 6.40099416e-09
 6.40099416e-09
 6.40099416e-09
 6.40099416e-09
 6.40099416e-09
 6.40099416e-09
 6.40099416e-09
 6.40099416e-09
 6.40099416e-09
 6.40099416e-09
 6.40099416e-09
 6.40099416e-09
 6.40099416e-09
 6.40099416e-09
 6.40099416e-09
 6.40099416e-09
 6.40099416e-09
 6.40099416e-09
 2.34029666e-08
 2.34029666e-08
 2.34029666e-08
 2.34029666e-08
 2.34029666e-08
 2.34029666e-08
 1.55069157e-08
 1.55069157e-08
 1.55069157e-08
 1.55069157e-08
 1.55069157e-08
 1.55069157e-08
 1.55069157e-08
 1.55069157e-08
 1.55069157e-08
 1.55069157e-08
 1.55069157e-08
 1.55069157e-08
 1.55069157e-08
 1.55069157e-08
 1.55069157e-08
 1.55069157e-08
 1.17751407e-08
 1.17751407e-08
 1.17751407e-08
 1.17751407e-08
 1.17751407e-08
 1.17751407e-08
 1.17751407e-08
 1.17751407e-08
 1.17751407e-08
 1.17751407e-08
 1.17751407e-08
 1.17751407e-08
 6.66664587e-09
 6.66664587e-09
 6.66664587e-09
 6.66664587e-09
 6.66664587e-09
 6.66664587e-09
 6.66664587e-09
 4.17726827e-09
 4.17726827e-09
 4.17726827e-09
 4.17726827e-09
 4.17726827e-09
 4.17726827e-09
 2.19529411e-09
 2.19529411e-09
 2.19529411e-09
 2.19529411e-09
 2.19529411e-09
 2.19529411e-09
 1.25446675e-09
 1.25446675e-09
 6.42618190e-10
 6.42618190e-10
)
)
1
(
101
(
 1.17916055e-08
 1.17916055e-08
 1.17916055e-08
 1.17916055e-08
 1.17916055e-08
 1.17916055e-08
 1.17916055e-08
 1.17916055e-08
 1.17916055e-08
 1.17916055e-08
 1.17916055e-08
 1.17916055e-08
 1.17916055e-08
 1.17916055e-08
 1.17916055e-08
 1.17916055e-08
 1.17916055e-08
 1.17916055e-08
 1.17916055e-08
 1.17916055e-08
 1.17916055e-08
 1.17916055e-08
 1.17916055e-08
 1.17916055e-08
 1.17916055e-08
 1.17916055e-08
 1.17916055e-08
 1.17916055e-08
 1.17916055e-08
 1.17916055e-08
 1.17916055e-08
 1.17916055e-08
 1.17916055e-08
 1.17916055e-08
 1.17916055e-08
 1.17916055e-08
 1.17916055e-08
 1.17916055e-08
 1.17916055e-08
 1.17916055e-08
 1.17916055e-08
 1.17916055e-08
 1.17916055e-08
 1.17916055e-08
 3.09824142e-08
 2.34029666e-08
 2.34029666e-08
 2.34029666e-08
 2.34029666e-08
 2.34029666e-08
 2.34029666e-08
 1.55069157e-08
 1.55069157e-08
 1.55069157e-08
 1.55069157e-08
 1.55069157e-08
 1.55069157e-08
 1.55069157e-08
 1.55069157e-08
 1.55069157e-08
 1.55069157e-08
 1.55069157e-08
 1.55069157e-08
 1.55069157e-08
 1.55069157e-08
 1.55069157e-08
 1.55069157e-08
 1.17751407e-08
 1.17751407e-08
 1.17751407e-08
 1.17751407e-08
 1.17751407e-08
 1.17751407e-08
 1.17751407e-08
 1.17751407e-08
 1.17751407e-08
 1.17751407e-08
 1.17751407e-08
 1.17751407e-08
 8.67265594e-09
 6.66664587e-09
 6.66664587e-09
 6.66664587e-09
 6.66664587e-09
 6.66664587e-09
 6.66664587e-09
 4.17726827e-09
 4.17726827e-09
 4.17726827e-09
 4.17726827e-09
 4.17726827e-09
 4.17726827e-09
 4.17726827e-09
 2.19529411e-09
 2.19529411e-09
 2.19529411e-09
 2.19529411e-09
 2.19529411e-09
 1.25446675e-09
 8.14865006e-10
 8.14865006e-10
)
)
1
(
101
(
 1.72039427e-08
 1.72039427e-08
 1.72039427e-08
 1.72039427e-08
 1.72039427e-08
 1.72039427e-08
 1.72039427e-08
 1.72039427e-08
 1.72039427e-08
 1.72039427e-08
 1.72039427e-08
 1.72039427e-08
 1.72039427e-08
 1.72039427e-08
 1.72039427e-08
 1.72039427e-08
 1.72039427e-08
 1.72039427e-08
 1.72039427e-08
 1.72039427e-08
 1.72039427e-08
 1.72039427e-08
 1.72039427e-08
 1.72039427e-08
 1.72039427e-08
 1.72039427e-08
 1.72039427e-08
 1.72039427e-08
 1.72039427e-08
 1.72039427e-08
 1.72039427e-08
 1.72039427e-08
 1.72039427e-08
 1.72039427e-08
 1.72039427e-08
 1.72039427e-08
 1.72039427e-08
 1.72039427e-08
 1.72039427e-08
 1.72039427e-08
 1.72039427e-08
 1.72039427e-08
 1.72039427e-08
 1.72039427e-08
 3.09824142e-08
 3.09824142e-08
 3.09824142e-08
 2.34029666e-08
 2.34029666e-08
 2.34029666e-08
 2.34029666e-08
 2.34029666e-08
 2.34029666e-08
 1.55069157e-08
 1.55069157e-08
 1.55069157e-08
 1.55069157e-08
 1.55069157e-08
 1.55069157e-08
 1.55069157e-08
 1.55069157e-08
 1.55069157e-08
 1.55069157e-08
 1.55069157e-08
 1.55069157e-08
 1.55069157e-08
 1.55069157e-08
 1.55069157e-08
 1.17751407e-08
 1.17751407e-08
 1.17751407e-08
 1.17751407e-08
 1.17751407e-08
 1.17751407e-08
 1.17751407e-08
 1.17751407e-08
 1.17751407e-08
 1.17751407e-08
 1.17751407e-08
 1.17751407e-08
 8.67265594e-09
 6.66664587e-09
 6.66664587e-09
 6.66664587e-09
 6.66664587e-09
 6.66664587e-09
 6.66664587e-09
 6.66664587e-09
 4.17726827e-09
 4.17726827e-09
 4.17726827e-09
 4.17726827e-09
 4.17726827e-09
 4.17726827e-09
 2.84884304e-09
 2.19529411e-09
 2.19529411e-09
 2.19529411e-09
 1.53696844e-09
 1.53696844e-09
 8.14865006e-10
)
)
1
(
101
(
 2.35408179e-08
 2.35408179e-08
 2.35408179e-08
 2.35408179e-08
 2.35408179e-08
 2.35408179e-08
 2.35408179e-08
 2.35408179e-08
 2.35408179e-08
 2.35408179e-08
 2.35408179e-08
 2.35408179e-08
 2.35408179e-08
 2.35408179e-08
 2.35408179e-08
 2.35408179e-08
 2.35408179e-08
 2.35408179e-08
 2.35408179e-08
 2.35408179e-08
 2.35408179e-08
 2.35408179e-08
 2.35408179e-08
 2.35408179e-08
 2.35408179e-08
 2.35408179e-08
 2.35408179e-08
 2.35408179e-08
 2.35408179e-08
 2.35408179e-08
 2.35408179e-08
 2.35408179e-08
 2.35408179e-08
 2.35408179e-08
 2.35408179e-08
 2.35408179e-08
 2.35408179e-08
 2.35408179e-08
 2.35408179e-08
 2.35408179e-08
 2.35408179e-08
 2.35408179e-08
 8.50190038e-08
 3.09824142e-08
 3.09824142e-08
 3.09824142e-08
 3.09824142e-08
 3.09824142e-08
 2.34029666e-08
 2.34029666e-08
 2.34029666e-08
 2.34029666e-08
 2.34029666e-08
 2.34029666e-08
 1.55069157e-08
 1.55069157e-08
 1.55069157e-08
 1.55069157e-08
 1.55069157e-08
 1.55069157e-08
 1.55069157e-08
 1.55069157e-08
 1.55069157e-08
 1.55069157e-08
 1.55069157e-08
 1.55069157e-08
 1.55069157e-08
 1.55069157e-08
 1.55069157e-08
 1.55069157e-08
 1.17751407e-08
 1.17751407e-08
 1.17751407e-08
 1.17751407e-08
 1.17751407e-08
 1.17751407e-08
 1.17751407e-08
 1.17751407e-08
 1.17751407e-08
 1.17751407e-08
 1.17751407e-08
 8.67265594e-09
 8.67265594e-09
 6.66664587e-09
 6.66664587e-09
 6.66664587e-09
 6.66664587e-09
 6.66664587e-09
 6.66664587e-09
 4.17726827e-09
 4.17726827e-09
 4.17726827e-09
 4.17726827e-09
 4.17726827e-09
 4.17726827e-09
 2.84884304e-09
 2.84884304e-09
 2.19557250e-09
 2.19557250e-09
 1.53696844e-09
 1.53696844e-09
)
)
1
(
101
(
 3.07323727e-08
 3.07323727e-08
 3.07323727e-08
 3.07323727e-08
 3.07323727e-08
 3.07323727e-08
 3.07323727e-08
 3.07323727e-08
 3.07323727e-08
 3.07323727e-08
 3.07323727e-08
 3.07323727e-08
 3.07323727e-08
 3.07323727e-08
 3.07323727e-08
 3.07323727e-08
 3.07323727e-08
 3.07323727e-08
 3.07323727e-08
 3.07323727e-08
 3.07323727e-08
 3.07323727e-08
 3.07323727e-08
 3.07323727e-08
 3.07323727e-08
 3.07323727e-08
 3.07323727e-08
 3.07323727e-08
 3.07323727e-08
 3.07323727e-08
 3.07323727e-08
 3.07323727e-08
 3.07323727e-08
 8.50190038e-08
 8.50190038e-08
 8.50190038e-08
 8.50190038e-08
 8.50190038e-08
 8.50190038e-08
 8.50190038e-08
 8.50190038e-08
 8.50190038e-08
 8.50190038e-08
 3.09824142e-08
 3.09824142e-08
 3.09824142e-08
 3.09824142e-08
 3.09824142e-08
 3.09824142e-08
 2.34029666e-08
 2.34029666e-08
 2.34029666e-08
 2.34029666e-08
 2.34029666e-08
 2.34029666e-08
 2.34029666e-08
 1.55069157e-08
 1.55069157e-08
 1.55069157e-08
 1.55069157e-08
 1.55069157e-08
 1.55069157e-08
 1.55069157e-08
 1.55069157e-08
 1.55069157e-08
 1.55069157e-08
 1.55069157e-08
 1.55069157e-08
 1.55069157e-08
 1.55069157e-08
 1.55069157e-08
 1.17751407e-08
 1.17751407e-08
 1.17751407e-08
 1.17751407e-08
 1.17751407e-08
 1.17751407e-08
 1.17751407e-08
 1.17751407e-08
 1.17751407e-08
 1.17751407e-08
 1.17751407e-08
 8.67265594e-09
 8.67265594e-09
 6.66664587e-09
 6.66664587e-09
 6.66664587e-09
 6.66664587e-09
 6.66664587e-09
 6.66664587e-09
 6.66664587e-09
 4.17726827e-09
 4.17726827e-09
 4.17726827e-09
 4.17726827e-09
 4.17726827e-09
 2.84884304e-09
 2.84884304e-09
 2.19557250e-09
 2.19557250e-09
 1.53696844e-09
)
)
1
(
101
(
 3.74526667e-08
 3.74526667e-08
 3.74526667e-08
 3.74526667e-08
 3.74526667e-08
 3.74526667e-08
 3.74526667e-08
 3.74526667e-08
 3.74526667e-08
 3.74526667e-08
 3.74526667e-08
 3.74526667e-08
 3.74526667e-08
 3.74526667e-08
 3.74526667e-08
 3.74526667e-08
 3.74526667e-08
 3.74526667e-08
 3.74526667e-08
 3.74526667e-08
 3.74526667e-08
 3.74526667e-08
 3.74526667e-08
 3.74526667e-08
 3.74526667e-08
 3.74526667e-08
 8.50190038e-08
 8.50190038e-08
 8.50190038e-08
 8.50190038e-08
 8.50190038e-08
 8.50190038e-08
 8.50190038e-08
 8.50190038e-08
 8.50190038e-08
 8.50190038e-08
 8.50190038e-08
 8.50190038e-08
 8.50190038e-08
 8.50190038e-08
 8.50190038e-08
 8.50190038e-08
 8.50190038e-08
 3.09824142e-08
 3.09824142e-08
 3.09824142e-08
 3.09824142e-08
 3.09824142e-08
 3.09824142e-08
 3.09824142e-08
 2.34029666e-08
 2.34029666e-08
 2.34029666e-08
 2.34029666e-08
 2.34029666e-08
 2.34029666e-08
 2.34029666e-08
 1.55069157e-08
 1.55069157e-08
 1.55069157e-08
 1.55069157e-08
 1.55069157e-08
 1.55069157e-08
 1.55069157e-08
 1.55069157e-08
 1.55069157e-08
 1.55069157e-08
 1.55069157e-08
 1.55069157e-08
 1.55069157e-08
 1.55069157e-08
 1.55069157e-08
 1.17751407e-08
 1.17751407e-08
 1.17751407e-08
 1.17751407e-08
 1.17751407e-08
 1.17751407e-08
 1.17751407e-08
 1.17751407e-08
 1.17751407e-08
 1.17751407e-08
 1.17751407e-08
 8.67265594e-09
 8.67265594e-09
 8.67265594e-09
 6.66664587e-09
 6.66664587e-09
 6.66664587e-09
 6.66664587e-09
 6.66664587e-09
 6.66664587e-09
 5.10425119e-09
 4.17726827e-09
 4.17726827e-09
 4.17726827e-09
 3.22911876e-09
 3.22911876e-09
 3.22911876e-09
 2.19557250e-09
 2.19557250e-09
)
)
1
(
101
(
 4.63257876e-08
 4.63257876e-08
 4.63257876e-08
 4.63257876e-08
 4.63257876e-08
 4.63257876e-08
 4.63257876e-08
 4.63257876e-08
 4.63257876e-08
 4.63257876e-08
 4.63257876e-08
 4.63257876e-08
 4.63257876e-08
 4.63257876e-08
 4.63257876e-08
 4.63257876e-08
 4.63257876e-08
 4.63257876e-08
 4.63257876e-08
 8.50190038e-08
 8.50190038e-08
 8.50190038e-08
 8.50190038e-08
 8.50190038e-08
 8.50190038e-08
 8.50190038e-08
 8.50190038e-08
 8.50190038e-08
 8.50190038e-08
 8.50190038e-08
 8.50190038e-08
 8.50190038e-08
 8.50190038e-08
 8.50190038e-08
 8.50190038e-08
 8.50190038e-08
 8.50190038e-08
 8.50190038e-08
 8.50190038e-08
 8.50190038e-08
 8.50190038e-08
 8.50190038e-08
 3.09824142e-08
 3.09824142e-08
 3.09824142e-08
 3.09824142e-08
 3.09824142e-08
 3.09824142e-08
 3.09824142e-08
 3.09824142e-08
 3.09824142e-08
 2.34029666e-08
 2.34029666e-08
 2.34029666e-08
 2.34029666e-08
 2.34029666e-08
 2.34029666e-08
 2.34029666e-08
 2.34029666e-08
 1.55069157e-08
 1.55069157e-08
 1.55069157e-08
 1.55069157e-08
 1.55069157e-08
 1.55069157e-08
 1.55069157e-08
 1.55069157e-08
 1.55069157e-08
 1.55069157e-08
 1.55069157e-08
 1.55069157e-08
 1.55069157e-08
 1.55069157e-08
 1.17751407e-08
 1.17751407e-08
 1.17751407e-08
 1.17751407e-08
 1.17751407e-08
 1.17751407e-08
 1.17751407e-08
 1.17751407e-08
 1.17751407e-08
 1.17751407e-08
 1.17751407e-08
 8.67265594e-09
 8.67265594e-09
 8.67265594e-09
 6.66664587e-09
 6.66664587e-09
 6.66664587e-09
 6.66664587e-09
 6.66664587e-09
 6.66664587e-09
 5.10425119e-09
 5.10425119e-09
 3.93201392e-09
 3.93201392e-09
 3.22911876e-09
 3.22911876e-09
 3.22911876e-09
 3.22911876e-09
)
)
1
(
101
(
 5.38643639e-08
 5.38643639e-08
 5.38643639e-08
 5.38643639e-08
 5.38643639e-08
 5.38643639e-08
 5.38643639e-08
 5.38643639e-08
 5.38643639e-08
 5.38643639e-08
 5.38643639e-08
 5.38643639e-08
 5.38643639e-08
 5.38643639e-08
 8.50190038e-08
 8.50190038e-08
 8.50190038e-08
 8.50190038e-08
 8.50190038e-08
 8.50190038e-08
 8.50190038e-08
 8.50190038e-08
 8.50190038e-08
 8.50190038e-08
 8.50190038e-08
 8.50190038e-08
 8.50190038e-08
 8.50190038e-08
 8.50190038e-08
 8.50190038e-08
 8.50190038e-08
 8.50190038e-08
 8.50190038e-08
 8.50190038e-08
 8.50190038e-08
 8.50190038e-08
 8.50190038e-08
 8.50190038e-08
 8.50190038e-08
 8.50190038e-08
 8.50190038e-08
 8.50190038e-08
 3.09824142e-08
 3.09824142e-08
 3.09824142e-08
 3.09824142e-08
 3.09824142e-08
 3.09824142e-08
 3.09824142e-08
 3.09824142e-08
 3.09824142e-08
 3.09824142e-08
 2.34029666e-08
 2.34029666e-08
 2.34029666e-08
 2.34029666e-08
 2.34029666e-08
 2.34029666e-08
 2.34029666e-08
 2.34029666e-08
 1.55069157e-08
 1.55069157e-08
 1.55069157e-08
 1.55069157e-08
 1.55069157e-08
 1.55069157e-08
 1.55069157e-08
 1.55069157e-08
 1.55069157e-08
 1.55069157e-08
 1.55069157e-08
 1.55069157e-08
 1.55069157e-08
 1.55069157e-08
 1.55069157e-08
 1.17751407e-08
 1.17751407e-08
 1.17751407e-08
 1.17751407e-08
 1.17751407e-08
 1.17751407e-08
 1.17751407e-08
 1.17751407e-08
 1.17751407e-08
 1.17751407e-08
 8.67265594e-09
 8.67265594e-09
 8.67265594e-09
 8.67265594e-09
 6.66664587e-09
 6.66664587e-09
 6.66664587e-09
 6.66664587e-09
 6.66664587e-09
 5.10425119e-09
 5.10425119e-09
 3.93201392e-09
 3.93201392e-09
 3.22911876e-09
 3.22911876e-09
 3.22911876e-09
)
)
1
(
101
(
 6.35478897e-08
 6.35478897e-08
 6.35478897e-08
 6.35478897e-08
 6.35478897e-08
 6.35478897e-08
 6.35478897e-08
 6.35478897e-08
 6.35478897e-08
 8.50190038e-08
 8.50190038e-08
 8.50190038e-08
 8.50190038e-08
 8.50190038e-08
 8.50190038e-08
 8.50190038e-08
 8.50190038e-08
 8.50190038e-08
 8.50190038e-08
 8.50190038e-08
 8.50190038e-08
 8.50190038e-08
 8.50190038e-08
 8.50190038e-08
 8.50190038e-08
 8.50190038e-08
 8.50190038e-08
 8.50190038e-08
 8.50190038e-08
 8.50190038e-08
 8.50190038e-08
 8.50190038e-08
 8.50190038e-08
 8.50190038e-08
 8.50190038e-08
 8.50190038e-08
 8.50190038e-08
 8.50190038e-08
 8.50190038e-08
 8.50190038e-08
 8.50190038e-08
 8.50190038e-08
 3.09824142e-08
 3.09824142e-08
 3.09824142e-08
 3.09824142e-08
 3.09824142e-08
 3.09824142e-08
 3.09824142e-08
 3.09824142e-08
 3.09824142e-08
 3.09824142e-08
 3.09824142e-08
 3.09824142e-08
 2.34029666e-08
 2.34029666e-08
 2.34029666e-08
 2.34029666e-08
 2.34029666e-08
 2.34029666e-08
 2.34029666e-08
 2.34029666e-08
 1.55069157e-08
 1.55069157e-08
 1.55069157e-08
 1.55069157e-08
 1.55069157e-08
 1.55069157e-08
 1.55069157e-08
 1.55069157e-08
 1.55069157e-08
 1.55069157e-08
 1.55069157e-08
 1.55069157e-08
 1.55069157e-08
 1.55069157e-08
 1.17751407e-08
 1.17751407e-08
 1.17751407e-08
 1.17751407e-08
 1.17751407e-08
 1.17751407e-08
 1.17751407e-08
 1.17751407e-08
 1.17751407e-08
 1.17751407e-08
 8.67265594e-09
 8.67265594e-09
 8.67265594e-09
 8.67265594e-09
 7.45917706e-09
 6.66664587e-09
 6.66664587e-09
 6.66664587e-09
 6.66664587e-09
 5.10425119e-09
 5.10425119e-09
 3.93201392e-09
 3.93201392e-09
 3.22911876e-09
 3.22911876e-09
)
)
1
(
101
(
 7.42175406e-08
 7.42175406e-08
 7.42175406e-08
 7.42175406e-08
 7.42175406e-08
 7.42175406e-08
 8.50190038e-08
 8.50190038e-08
 8.50190038e-08
 8.50190038e-08
 8.50190038e-08
 8.50190038e-08
 8.50190038e-08
 8.50190038e-08
 8.50190038e-08
 8.50190038e-08
 8.50190038e-08
 8.50190038e-08
 8.50190038e-08
 8.50190038e-08
 8.50190038e-08
 8.50190038e-08
 8.50190038e-08
 8.50190038e-08
 8.50190038e-08
 8.50190038e-08
 8.50190038e-08
 8.50190038e-08
 8.50190038e-08
 8.50190038e-08
 8.50190038e-08
 8.50190038e-08
 8.50190038e-08
 8.50190038e-08
 8.50190038e-08
 8.50190038e-08
 8.50190038e-08
 8.50190038e-08
 8.50190038e-08
 8.50190038e-08
 8.50190038e-08
 8.50190038e-08
 3.09824142e-08
 3.09824142e-08
 3.09824142e-08
 3.09824142e-08
 3.09824142e-08
 3.09824142e-08
 3.09824142e-08
 3.09824142e-08
 3.09824142e-08
 3.09824142e-08
 3.09824142e-08
 3.09824142e-08
 3.09824142e-08
 2.34029666e-08
 2.34029666e-08
 2.34029666e-08
 2.34029666e-08
 2.34029666e-08
 2.34029666e-08
 2.34029666e-08
 2.34029666e-08
 1.55069157e-08
 1.55069157e-08
 1.55069157e-08
 1.55069157e-08
 1.55069157e-08
 1.55069157e-08
 1.55069157e-08
 1.55069157e-08
 1.55069157e-08
 1.55069157e-08
 1.55069157e-08
 1.55069157e-08
 1.55069157e-08
 1.55069157e-08
 1.17751407e-08
 1.17751407e-08
 1.17751407e-08
 1.17751407e-08
 1.17751407e-08
 1.17751407e-08
 1.17751407e-08
 1.17751407e-08
 1.17751407e-08
 1.17751407e-08
 8.67265594e-09
 8.67265594e-09
 8.67265594e-09
 8.67265594e-09
 7.45917706e-09
 7.45917706e-09
 5.66154329e-09
 5.66154329e-09
 5.66154329e-09
 5.10425119e-09
 5.10425119e-09
 3.93201392e-09
 3.93201392e-09
 3.22911876e-09
)
)
1
(
101
(
 8.26102138e-08
 8.26102138e-08
 8.26102138e-08
 8.50190038e-08
 8.50190038e-08
 8.50190038e-08
 8.50190038e-08
 8.50190038e-08
 8.50190038e-08
 8.50190038e-08
 8.50190038e-08
 8.50190038e-08
 8.50190038e-08
 8.50190038e-08
 8.50190038e-08
 8.50190038e-08
 8.50190038e-08
 8.50190038e-08
 8.50190038e-08
 8.50190038e-08
 8.50190038e-08
 8.50190038e-08
 8.50190038e-08
 8.50190038e-08
 8.50190038e-08
 8.50190038e-08
 8.50190038e-08
 8.50190038e-08
 8.50190038e-08
 8.50190038e-08
 8.50190038e-08
 8.50190038e-08
 8.50190038e-08
 8.50190038e-08
 8.50190038e-08
 8.50190038e-08
 8.50190038e-08
 8.50190038e-08
 8.50190038e-08
 8.50190038e-08
 8.50190038e-08
 3.57329123e-08
 3.09824142e-08
 3.09824142e-08
 3.09824142e-08
 3.09824142e-08
 3.09824142e-08
 3.09824142e-08
 3.09824142e-08
 3.09824142e-08
 3.09824142e-08
 3.09824142e-08
 3.09824142e-08
 3.09824142e-08
 3.09824142e-08
 3.09824142e-08
 2.34029666e-08
 2.34029666e-08
 2.34029666e-08
 2.34029666e-08
 2.34029666e-08
 2.34029666e-08
 2.34029666e-08
 2.34029666e-08
 2.34029666e-08
 1.55069157e-08
 1.55069157e-08
 1.55069157e-08
 1.55069157e-08
 1.55069157e-08
 1.55069157e-08
 1.55069157e-08
 1.55069157e-08
 1.55069157e-08
 1.55069157e-08
 1.55069157e-08
 1.55069157e-08
 1.55069157e-08
 1.17751407e-08
 1.17751407e-08
 1.17751407e-08
 1.17751407e-08
 1.17751407e-08
 1.17751407e-08
 1.17751407e-08
 1.17751407e-08
 1.17751407e-08
 1.17751407e-08
 8.67265594e-09
 8.67265594e-09
 8.67265594e-09
 8.67265594e-09
 7.45917706e-09
 7.45917706e-09
 5.66154329e-09
 5.66154329e-09
 5.66154329e-09
 5.66154329e-09
 5.10425119e-09
 3.93201392e-09
 3.93201392e-09
)
)
1
(
101
(
 9.34801864e-08
 9.34801864e-08
 8.50190038e-08
 8.50190038e-08
 8.50190038e-08
 8.50190038e-08
 8.50190038e-08
 8.50190038e-08
 8.50190038e-08
 8.50190038e-08
 8.50190038e-08
 8.50190038e-08
 8.50190038e-08
 8.50190038e-08
 8.50190038e-08
 8.50190038e-08
 8.50190038e-08
 8.50190038e-08
 8.50190038e-08
 8.50190038e-08
 8.50190038e-08
 8.50190038e-08
 8.50190038e-08
 8.50190038e-08
 8.50190038e-08
 8.50190038e-08
 8.50190038e-08
 8.50190038e-08
 8.50190038e-08
 8.50190038e-08
 8.50190038e-08
 8.50190038e-08
 8.50190038e-08
 8.50190038e-08
 8.50190038e-08
 8.50190038e-08
 8.50190038e-08
 8.50190038e-08
 8.50190038e-08
 8.50190038e-08
 8.50190038e-08
 3.57329123e-08
 3.57329123e-08
 3.09824142e-08
 3.09824142e-08
 3.09824142e-08
 3.09824142e-08
 3.09824142e-08
 3.09824142e-08
 3.09824142e-08
 3.09824142e-08
 3.09824142e-08
 3.09824142e-08
 3.09824142e-08
 3.09824142e-08
 3.09824142e-08
 3.09824142e-08
 2.34029666e-08
 2.34029666e-08
 2.34029666e-08
 2.34029666e-08
 2.34029666e-08
 2.34029666e-08
 2.34029666e-08
 2.34029666e-08
 2.34029666e-08
 1.55069157e-08
 1.55069157e-08
 1.55069157e-08
 1.55069157e-08
 1.55069157e-08
 1.55069157e-08
 1.55069157e-08
 1.55069157e-08
 1.55069157e-08
 1.55069157e-08
 1.55069157e-08
 1.55069157e-08
 1.55069157e-08
 1.55069157e-08
 1.17751407e-08
 1.17751407e-08
 1.17751407e-08
 1.17751407e-08
 1.17751407e-08
 1.17751407e-08
 1.17751407e-08
 1.17751407e-08
 9.72909856e-09
 8.67265594e-09
 8.67265594e-09
 8.67265594e-09
 5.90261159e-09
 5.90261159e-09
 5.90261159e-09
 5.66154329e-09
 5.66154329e-09
 5.66154329e-09
 5.66154329e-09
 5.66154329e-09
 3.93201392e-09
)
)
1
(
101
(
 1.24744749e-07
 8.50190038e-08
 8.50190038e-08
 8.50190038e-08
 8.50190038e-08
 8.50190038e-08
 8.50190038e-08
 8.50190038e-08
 8.50190038e-08
 8.50190038e-08
 8.50190038e-08
 8.50190038e-08
 8.50190038e-08
 8.50190038e-08
 8.50190038e-08
 8.50190038e-08
 8.50190038e-08
 8.50190038e-08
 8.50190038e-08
 8.50190038e-08
 8.50190038e-08
 8.50190038e-08
 8.50190038e-08
 8.50190038e-08
 8.50190038e-08
 8.50190038e-08
 8.50190038e-08
 8.50190038e-08
 8.50190038e-08
 8.50190038e-08
 8.50190038e-08
 8.50190038e-08
 8.50190038e-08
 8.50190038e-08
 8.50190038e-08
 8.50190038e-08
 8.50190038e-08
 8.50190038e-08
 8.50190038e-08
 8.50190038e-08
 3.57329123e-08
 3.57329123e-08
 3.57329123e-08
 3.57329123e-08
 3.09824142e-08
 3.09824142e-08
 3.09824142e-08
 3.09824142e-08
 3.09824142e-08
 3.09824142e-08
 3.09824142e-08
 3.09824142e-08
 3.09824142e-08
 3.09824142e-08
 3.09824142e-08
 3.09824142e-08
 3.09824142e-08
 3.09824142e-08
 2.34029666e-08
 2.34029666e-08
 2.34029666e-08
 2.34029666e-08
 2.34029666e-08
 2.34029666e-08
 2.34029666e-08
 2.34029666e-08
 2.34029666e-08
 2.34029666e-08
 1.55069157e-08
 1.55069157e-08
 1.55069157e-08
 1.55069157e-08
 1.55069157e-08
 1.55069157e-08
 1.55069157e-08
 1.55069157e-08
 1.55069157e-08
 1.55069157e-08
 1.55069157e-08
 1.55069157e-08
 1.55069157e-08
 1.39974849e-08
 1.17751407e-08
 1.17751407e-08
 1.17751407e-08
 1.17751407e-08
 1.17751407e-08
 1.17751407e-08
 1.17751407e-08
 9.72909856e-09
 9.72909856e-09
 8.47589880e-09
 8.47589880e-09
 5.90261159e-09
 5.90261159e-09
 5.90261159e-09
 5.90261159e-09
 5.66154329e-09
 5.66154329e-09
 5.66154329e-09
 5.66154329e-09
)
)
1
(
101
(
 1.24744749e-07
 1.13534290e-07
 1.13534290e-07
 1.13534290e-07
 1.13534290e-07
 1.13534290e-07
 1.13534290e-07
 1.13534290e-07
 1.13534290e-07
 1.13534290e-07
 1.13534290e-07
 1.13534290e-07
 1.13534290e-07
 1.13534290e-07
 1.13534290e-07
 1.13534290e-07
 1.13534290e-07
 1.13534290e-07
 1.13534290e-07
 1.13534290e-07
 1.13534290e-07
 1.13534290e-07
 1.13534290e-07
 1.13534290e-07
 1.13534290e-07
 1.13534290e-07
 1.13534290e-07
 1.13534290e-07
 1.13534290e-07
 1.13534290e-07
 1.13534290e-07
 1.13534290e-07
 1.13534290e-07
 1.13534290e-07
 1.13534290e-07
 1.13534290e-07
 1.13534290e-07
 1.13534290e-07
 1.13534290e-07
 1.13534290e-07
 3.57329123e-08
 3.57329123e-08
 3.57329123e-08
 3.57329123e-08
 3.57329123e-08
 3.09824142e-08
 3.09824142e-08
 3.09824142e-08
 3.09824142e-08
 3.09824142e-08
 3.09824142e-08
 3.09824142e-08
 3.09824142e-08
 3.09824142e-08
 3.09824142e-08
 3.09824142e-08
 3.09824142e-08
 3.09824142e-08
 3.09824142e-08
 2.34029666e-08
 2.34029666e-08
 2.34029666e-08
 2.34029666e-08
 2.34029666e-08
 2.34029666e-08
 2.34029666e-08
 2.34029666e-08
 2.34029666e-08
 2.34029666e-08
 1.55069157e-08
 1.55069157e-08
 1.55069157e-08
 1.55069157e-08
 1.55069157e-08
 1.55069157e-08
 1.55069157e-08
 1.55069157e-08
 1.55069157e-08
 1.55069157e-08
 1.55069157e-08
 1.55069157e-08
 1.55069157e-08
 1.39974849e-08
 1.39974849e-08
 1.17751407e-08
 1.17751407e-08
 1.17751407e-08
 1.17751407e-08
 1.17751407e-08
 9.72909856e-09
 9.72909856e-09
 9.72909856e-09
 8.47589880e-09
 8.47589880e-09
 5.90261159e-09
 5.90261159e-09
 5.90261159e-09
 5.90261159e-09
 5.90261159e-09
 5.66154329e-09
 5.66154329e-09
)
)
1
(
101
(
 1.25173695e-07
 1.25173695e-07
 1.25173695e-07
 1.25173695e-07
 1.25173695e-07
 1.25173695e-07
 1.25173695e-07
 1.25173695e-07
 1.25173695e-07
 1.25173695e-07
 1.25173695e-07
 1.25173695e-07
 1.25173695e-07
 1.25173695e-07
 1.25173695e-07
 1.25173695e-07
 1.25173695e-07
 1.25173695e-07
 1.25173695e-07
 1.25173695e-07
 1.25173695e-07
 1.25173695e-07
 1.25173695e-07
 1.25173695e-07
 1.25173695e-07
 1.25173695e-07
 1.25173695e-07
 1.25173695e-07
 1.25173695e-07
 1.25173695e-07
 1.25173695e-07
 1.25173695e-07
 1.25173695e-07
 1.25173695e-07
 1.25173695e-07
 1.25173695e-07
 1.25173695e-07
 1.25173695e-07
 1.25173695e-07
 1.25173695e-07
 3.57329123e-08
 3.57329123e-08
 3.57329123e-08
 3.57329123e-08
 3.57329123e-08
 3.57329123e-08
 3.09824142e-08
 3.09824142e-08
 3.09824142e-08
 3.09824142e-08
 3.09824142e-08
 3.09824142e-08
 3.09824142e-08
 3.09824142e-08
 3.09824142e-08
 3.09824142e-08
 3.09824142e-08
 3.09824142e-08
 3.09824142e-08
 3.09824142e-08
 3.09824142e-08
 2.34029666e-08
 2.34029666e-08
 2.34029666e-08
 2.34029666e-08
 2.34029666e-08
 2.34029666e-08
 2.34029666e-08
 2.34029666e-08
 2.34029666e-08
 2.34029666e-08
 1.55069157e-08
 1.55069157e-08
 1.55069157e-08
 1.55069157e-08
 1.55069157e-08
 1.55069157e-08
 1.55069157e-08
 1.55069157e-08
 1.55069157e-08
 1.55069157e-08
 1.55069157e-08
 1.55069157e-08
 1.39974849e-08
 1.39974849e-08
 1.39974849e-08
 1.17751407e-08
 1.17751407e-08
 1.17751407e-08
 1.17751407e-08
 9.72909856e-09
 9.72909856e-09
 9.72909856e-09
 8.47589880e-09
 8.47589880e-09
 5.90261159e-09
 5.90261159e-09
 5.90261159e-09
 5.90261159e-09
 5.90261159e-09
 5.90261159e-09
)
)
1
(
101
(
 1.33127135e-07
 1.33127135e-07
 1.33127135e-07
 1.33127135e-07
 1.33127135e-07
 1.33127135e-07
 1.33127135e-07
 1.33127135e-07
 1.33127135e-07
 1.33127135e-07
 1.33127135e-07
 1.33127135e-07
 1.33127135e-07
 1.33127135e-07
 1.33127135e-07
 1.33127135e-07
 1.33127135e-07
 1.33127135e-07
 1.33127135e-07
 1.33127135e-07
 1.33127135e-07
 1.33127135e-07
 1.33127135e-07
 1.33127135e-07
 1.33127135e-07
 1.33127135e-07
 1.33127135e-07
 1.33127135e-07
 1.33127135e-07
 1.33127135e-07
 1.33127135e-07
 1.33127135e-07
 1.33127135e-07
 1.33127135e-07
 1.33127135e-07
 1.33127135e-07
 1.33127135e-07
 1.33127135e-07
 1.33127135e-07
 3.57329123e-08
 3.57329123e-08
 3.57329123e-08
 3.57329123e-08
 3.57329123e-08
 3.57329123e-08
 3.57329123e-08
 3.57329123e-08
 3.57329123e-08
 3.09824142e-08
 3.09824142e-08
 3.09824142e-08
 3.09824142e-08
 3.09824142e-08
 3.09824142e-08
 3.09824142e-08
 3.09824142e-08
 3.09824142e-08
 3.09824142e-08
 3.09824142e-08
 3.09824142e-08
 3.09824142e-08
 3.09824142e-08
 2.34029666e-08
 2.34029666e-08
 2.34029666e-08
 2.34029666e-08
 2.34029666e-08
 2.34029666e-08
 2.34029666e-08
 2.34029666e-08
 2.34029666e-08
 2.34029666e-08
 1.55069157e-08
 1.55069157e-08
 1.55069157e-08
 1.55069157e-08
 1.55069157e-08
 1.55069157e-08
 1.55069157e-08
 1.55069157e-08
 1.55069157e-08
 1.55069157e-08
 1.55069157e-08
 1.55069157e-08
 1.39974849e-08
 1.39974849e-08
 1.39974849e-08
 1.39974849e-08
 1.18497608e-08
 1.18497608e-08
 1.18497608e-08
 9.72909856e-09
 9.72909856e-09
 9.72909856e-09
 8.47589880e-09
 8.47589880e-09
 5.90261159e-09
 5.90261159e-09
 5.90261159e-09