/*--------------------------------*- C++ -*----------------------------------*\
| =========                 |                                                 |
| \\      /  F ield        | OpenFOAM: The Open Source CFD Toolbox           |
|  \\    /   O peration    | Version:  7                                     |
|   \\  /    A nd          | Web:      http://www.OpenFOAM.com               |
|    \\/     M anipulation |                                                 |
\*---------------------------------------------------------------------------*/

FoamFile
{
    version     2.0;
    format      ascii;
    class       dictionary;
    object      Y_N2_table;
}

Y_N2_table
2
(
101
(
1
(
101
(
 7.67075229e-01
 7.67075229e-01
 7.67075229e-01
 7.67075229e-01
 7.67075229e-01
 7.67075229e-01
 7.67075229e-01
 7.67075229e-01
 7.67075229e-01
 7.67075229e-01
 7.67075229e-01
 7.67075229e-01
 7.67075229e-01
 7.67075229e-01
 7.67075229e-01
 7.67075229e-01
 7.67075229e-01
 7.67075229e-01
 7.67075229e-01
 7.67075229e-01
 7.67075229e-01
 7.67075229e-01
 7.67075229e-01
 7.67075229e-01
 7.67075229e-01
 7.67075229e-01
 7.67075229e-01
 7.67075229e-01
 7.67075229e-01
 7.67075229e-01
 7.67075229e-01
 7.67075229e-01
 7.67075229e-01
 7.67075229e-01
 7.67075229e-01
 7.67075229e-01
 7.67075229e-01
 7.67075229e-01
 7.67075229e-01
 7.67075229e-01
 7.67075229e-01
 7.67075229e-01
 7.67075229e-01
 7.67075229e-01
 7.67075229e-01
 1.49612854e-01
 1.49612854e-01
 1.17395494e-01
 1.17395494e-01
 1.17395494e-01
 1.17395494e-01
 1.17395494e-01
 1.17395494e-01
 1.17395494e-01
 1.17395494e-01
 1.17395494e-01
 1.17395494e-01
 1.17395494e-01
 1.17395494e-01
 1.17395494e-01
 1.17395494e-01
 1.17395494e-01
 1.17395494e-01
 8.96376423e-02
 8.96376423e-02
 8.96376423e-02
 8.96376423e-02
 8.96376423e-02
 8.96376423e-02
 8.96376423e-02
 8.96376423e-02
 8.96376423e-02
 8.96376423e-02
 8.96376423e-02
 8.96376423e-02
 5.10178184e-02
 5.10178184e-02
 5.10178184e-02
 5.10178184e-02
 5.10178184e-02
 5.10178184e-02
 5.10178184e-02
 3.56382830e-02
 3.56382830e-02
 3.56382830e-02
 3.56382830e-02
 3.56382830e-02
 3.56382830e-02
 2.08214443e-02
 2.08214443e-02
 2.08214443e-02
 2.08214443e-02
 2.08214443e-02
 2.08214443e-02
 2.08214443e-02
 4.86470868e-03
 4.86470868e-03
 4.86470868e-03
 4.86470868e-03
 4.86470868e-03
 6.48493157e-05
)
)
1
(
101
(
 7.66527596e-01
 7.66527596e-01
 7.66527596e-01
 7.66527596e-01
 7.66527596e-01
 7.66527596e-01
 7.66527596e-01
 7.66527596e-01
 7.66527596e-01
 7.66527596e-01
 7.66527596e-01
 7.66527596e-01
 7.66527596e-01
 7.66527596e-01
 7.66527596e-01
 7.66527596e-01
 7.66527596e-01
 7.66527596e-01
 7.66527596e-01
 7.66527596e-01
 7.66527596e-01
 7.66527596e-01
 7.66527596e-01
 7.66527596e-01
 7.66527596e-01
 7.66527596e-01
 7.66527596e-01
 7.66527596e-01
 7.66527596e-01
 7.66527596e-01
 7.66527596e-01
 7.66527596e-01
 7.66527596e-01
 7.66527596e-01
 7.66527596e-01
 7.66527596e-01
 7.66527596e-01
 7.66527596e-01
 7.66527596e-01
 7.66527596e-01
 7.66527596e-01
 7.66527596e-01
 7.66527596e-01
 7.66527596e-01
 7.66527596e-01
 1.49612854e-01
 1.49612854e-01
 1.49612854e-01
 1.17395494e-01
 1.17395494e-01
 1.17395494e-01
 1.17395494e-01
 1.17395494e-01
 1.17395494e-01
 1.17395494e-01
 1.17395494e-01
 1.17395494e-01
 1.17395494e-01
 1.17395494e-01
 1.17395494e-01
 1.17395494e-01
 1.17395494e-01
 1.17395494e-01
 1.17395494e-01
 1.17395494e-01
 8.96376423e-02
 8.96376423e-02
 8.96376423e-02
 8.96376423e-02
 8.96376423e-02
 8.96376423e-02
 8.96376423e-02
 8.96376423e-02
 8.96376423e-02
 8.96376423e-02
 8.96376423e-02
 8.96376423e-02
 5.10178184e-02
 5.10178184e-02
 5.10178184e-02
 5.10178184e-02
 5.10178184e-02
 5.10178184e-02
 3.56382830e-02
 3.56382830e-02
 3.56382830e-02
 3.56382830e-02
 3.56382830e-02
 3.56382830e-02
 3.56382830e-02
 2.08214443e-02
 2.08214443e-02
 2.08214443e-02
 2.08214443e-02
 2.08214443e-02
 2.08214443e-02
 1.36976249e-02
 4.86470868e-03
 4.86470868e-03
 4.86470868e-03
 2.62354829e-03
)
)
1
(
101
(
 7.65969846e-01
 7.65969846e-01
 7.65969846e-01
 7.65969846e-01
 7.65969846e-01
 7.65969846e-01
 7.65969846e-01
 7.65969846e-01
 7.65969846e-01
 7.65969846e-01
 7.65969846e-01
 7.65969846e-01
 7.65969846e-01
 7.65969846e-01
 7.65969846e-01
 7.65969846e-01
 7.65969846e-01
 7.65969846e-01
 7.65969846e-01
 7.65969846e-01
 7.65969846e-01
 7.65969846e-01
 7.65969846e-01
 7.65969846e-01
 7.65969846e-01
 7.65969846e-01
 7.65969846e-01
 7.65969846e-01
 7.65969846e-01
 7.65969846e-01
 7.65969846e-01
 7.65969846e-01
 7.65969846e-01
 7.65969846e-01
 7.65969846e-01
 7.65969846e-01
 7.65969846e-01
 7.65969846e-01
 7.65969846e-01
 7.65969846e-01
 7.65969846e-01
 7.65969846e-01
 7.65969846e-01
 7.65969846e-01
 1.49612854e-01
 1.49612854e-01
 1.49612854e-01
 1.49612854e-01
 1.49612854e-01
 1.49612854e-01
 1.17395494e-01
 1.17395494e-01
 1.17395494e-01
 1.17395494e-01
 1.17395494e-01
 1.17395494e-01
 1.17395494e-01
 1.17395494e-01
 1.17395494e-01
 1.17395494e-01
 1.17395494e-01
 1.17395494e-01
 1.17395494e-01
 1.17395494e-01
 1.17395494e-01
 1.17395494e-01
 8.96376423e-02
 8.96376423e-02
 8.96376423e-02
 8.96376423e-02
 8.96376423e-02
 8.96376423e-02
 8.96376423e-02
 8.96376423e-02
 8.96376423e-02
 8.96376423e-02
 8.96376423e-02
 8.96376423e-02
 5.10178184e-02
 5.10178184e-02
 5.10178184e-02
 5.10178184e-02
 5.10178184e-02
 5.10178184e-02
 5.10178184e-02
 3.56382830e-02
 3.56382830e-02
 3.56382830e-02
 3.56382830e-02
 3.56382830e-02
 3.56382830e-02
 2.08214443e-02
 2.08214443e-02
 2.08214443e-02
 2.08214443e-02
 2.08214443e-02
 2.08214443e-02
 1.36976249e-02
 1.36976249e-02
 7.98837141e-03
 7.98837141e-03
)
)
1
(
101
(
 7.65464554e-01
 7.65464554e-01
 7.65464554e-01
 7.65464554e-01
 7.65464554e-01
 7.65464554e-01
 7.65464554e-01
 7.65464554e-01
 7.65464554e-01
 7.65464554e-01
 7.65464554e-01
 7.65464554e-01
 7.65464554e-01
 7.65464554e-01
 7.65464554e-01
 7.65464554e-01
 7.65464554e-01
 7.65464554e-01
 7.65464554e-01
 7.65464554e-01
 7.65464554e-01
 7.65464554e-01
 7.65464554e-01
 7.65464554e-01
 7.65464554e-01
 7.65464554e-01
 7.65464554e-01
 7.65464554e-01
 7.65464554e-01
 7.65464554e-01
 7.65464554e-01
 7.65464554e-01
 7.65464554e-01
 7.65464554e-01
 7.65464554e-01
 7.65464554e-01
 7.65464554e-01
 7.65464554e-01
 7.65464554e-01
 7.65464554e-01
 7.65464554e-01
 7.65464554e-01
 7.65464554e-01
 7.65464554e-01
 1.94358045e-01
 1.49612854e-01
 1.49612854e-01
 1.49612854e-01
 1.49612854e-01
 1.49612854e-01
 1.49612854e-01
 1.17395494e-01
 1.17395494e-01
 1.17395494e-01
 1.17395494e-01
 1.17395494e-01
 1.17395494e-01
 1.17395494e-01
 1.17395494e-01
 1.17395494e-01
 1.17395494e-01
 1.17395494e-01
 1.17395494e-01
 1.17395494e-01
 1.17395494e-01
 1.17395494e-01
 1.17395494e-01
 8.96376423e-02
 8.96376423e-02
 8.96376423e-02
 8.96376423e-02
 8.96376423e-02
 8.96376423e-02
 8.96376423e-02
 8.96376423e-02
 8.96376423e-02
 8.96376423e-02
 8.96376423e-02
 8.96376423e-02
 6.74152948e-02
 5.10178184e-02
 5.10178184e-02
 5.10178184e-02
 5.10178184e-02
 5.10178184e-02
 5.10178184e-02
 3.56382830e-02
 3.56382830e-02
 3.56382830e-02
 3.56382830e-02
 3.56382830e-02
 3.56382830e-02
 3.56382830e-02
 2.08214443e-02
 2.08214443e-02
 2.08214443e-02
 2.08214443e-02
 2.08214443e-02
 1.36976249e-02
 1.07583000e-02
 1.07583000e-02
)
)
1
(
101
(
 7.64987847e-01
 7.64987847e-01
 7.64987847e-01
 7.64987847e-01
 7.64987847e-01
 7.64987847e-01
 7.64987847e-01
 7.64987847e-01
 7.64987847e-01
 7.64987847e-01
 7.64987847e-01
 7.64987847e-01
 7.64987847e-01
 7.64987847e-01
 7.64987847e-01
 7.64987847e-01
 7.64987847e-01
 7.64987847e-01
 7.64987847e-01
 7.64987847e-01
 7.64987847e-01
 7.64987847e-01
 7.64987847e-01
 7.64987847e-01
 7.64987847e-01
 7.64987847e-01
 7.64987847e-01
 7.64987847e-01
 7.64987847e-01
 7.64987847e-01
 7.64987847e-01
 7.64987847e-01
 7.64987847e-01
 7.64987847e-01
 7.64987847e-01
 7.64987847e-01
 7.64987847e-01
 7.64987847e-01
 7.64987847e-01
 7.64987847e-01
 7.64987847e-01
 7.64987847e-01
 7.64987847e-01
 7.64987847e-01
 1.94358045e-01
 1.94358045e-01
 1.94358045e-01
 1.49612854e-01
 1.49612854e-01
 1.49612854e-01
 1.49612854e-01
 1.49612854e-01
 1.49612854e-01
 1.17395494e-01
 1.17395494e-01
 1.17395494e-01
 1.17395494e-01
 1.17395494e-01
 1.17395494e-01
 1.17395494e-01
 1.17395494e-01
 1.17395494e-01
 1.17395494e-01
 1.17395494e-01
 1.17395494e-01
 1.17395494e-01
 1.17395494e-01
 1.17395494e-01
 8.96376423e-02
 8.96376423e-02
 8.96376423e-02
 8.96376423e-02
 8.96376423e-02
 8.96376423e-02
 8.96376423e-02
 8.96376423e-02
 8.96376423e-02
 8.96376423e-02
 8.96376423e-02
 8.96376423e-02
 6.74152948e-02
 5.10178184e-02
 5.10178184e-02
 5.10178184e-02
 5.10178184e-02
 5.10178184e-02
 5.10178184e-02
 5.10178184e-02
 3.56382830e-02
 3.56382830e-02
 3.56382830e-02
 3.56382830e-02
 3.56382830e-02
 3.56382830e-02
 2.86703199e-02
 2.08214443e-02
 2.08214443e-02
 2.08214443e-02
 1.70430932e-02
 1.70430932e-02
 1.07583000e-02
)
)
1
(
101
(
 7.64546965e-01
 7.64546965e-01
 7.64546965e-01
 7.64546965e-01
 7.64546965e-01
 7.64546965e-01
 7.64546965e-01
 7.64546965e-01
 7.64546965e-01
 7.64546965e-01
 7.64546965e-01
 7.64546965e-01
 7.64546965e-01
 7.64546965e-01
 7.64546965e-01
 7.64546965e-01
 7.64546965e-01
 7.64546965e-01
 7.64546965e-01
 7.64546965e-01
 7.64546965e-01
 7.64546965e-01
 7.64546965e-01
 7.64546965e-01
 7.64546965e-01
 7.64546965e-01
 7.64546965e-01
 7.64546965e-01
 7.64546965e-01
 7.64546965e-01
 7.64546965e-01
 7.64546965e-01
 7.64546965e-01
 7.64546965e-01
 7.64546965e-01
 7.64546965e-01
 7.64546965e-01
 7.64546965e-01
 7.64546965e-01
 7.64546965e-01
 7.64546965e-01
 7.64546965e-01
 7.60982915e-01
 1.94358045e-01
 1.94358045e-01
 1.94358045e-01
 1.94358045e-01
 1.94358045e-01
 1.49612854e-01
 1.49612854e-01
 1.49612854e-01
 1.49612854e-01
 1.49612854e-01
 1.49612854e-01
 1.17395494e-01
 1.17395494e-01
 1.17395494e-01
 1.17395494e-01
 1.17395494e-01
 1.17395494e-01
 1.17395494e-01
 1.17395494e-01
 1.17395494e-01
 1.17395494e-01
 1.17395494e-01
 1.17395494e-01
 1.17395494e-01
 1.17395494e-01
 1.17395494e-01
 1.17395494e-01
 8.96376423e-02
 8.96376423e-02
 8.96376423e-02
 8.96376423e-02
 8.96376423e-02
 8.96376423e-02
 8.96376423e-02
 8.96376423e-02
 8.96376423e-02
 8.96376423e-02
 8.96376423e-02
 6.74152948e-02
 6.74152948e-02
 5.10178184e-02
 5.10178184e-02
 5.10178184e-02
 5.10178184e-02
 5.10178184e-02
 5.10178184e-02
 3.56382830e-02
 3.56382830e-02
 3.56382830e-02
 3.56382830e-02
 3.56382830e-02
 3.56382830e-02
 2.86703199e-02
 2.86703199e-02
 2.24476971e-02
 2.24476971e-02
 1.70430932e-02
 1.70430932e-02
)
)
1
(
101
(
 7.64109742e-01
 7.64109742e-01
 7.64109742e-01
 7.64109742e-01
 7.64109742e-01
 7.64109742e-01
 7.64109742e-01
 7.64109742e-01
 7.64109742e-01
 7.64109742e-01
 7.64109742e-01
 7.64109742e-01
 7.64109742e-01
 7.64109742e-01
 7.64109742e-01
 7.64109742e-01
 7.64109742e-01
 7.64109742e-01
 7.64109742e-01
 7.64109742e-01
 7.64109742e-01
 7.64109742e-01
 7.64109742e-01
 7.64109742e-01
 7.64109742e-01
 7.64109742e-01
 7.64109742e-01
 7.64109742e-01
 7.64109742e-01
 7.64109742e-01
 7.64109742e-01
 7.64109742e-01
 7.64109742e-01
 7.60982915e-01
 7.60982915e-01
 7.60982915e-01
 7.60982915e-01
 7.60982915e-01
 7.60982915e-01
 7.60982915e-01
 7.60982915e-01
 7.60982915e-01
 7.60982915e-01
 1.94358045e-01
 1.94358045e-01
 1.94358045e-01
 1.94358045e-01
 1.94358045e-01
 1.94358045e-01
 1.49612854e-01
 1.49612854e-01
 1.49612854e-01
 1.49612854e-01
 1.49612854e-01
 1.49612854e-01
 1.49612854e-01
 1.17395494e-01
 1.17395494e-01
 1.17395494e-01
 1.17395494e-01
 1.17395494e-01
 1.17395494e-01
 1.17395494e-01
 1.17395494e-01
 1.17395494e-01
 1.17395494e-01
 1.17395494e-01
 1.17395494e-01
 1.17395494e-01
 1.17395494e-01
 1.17395494e-01
 8.96376423e-02
 8.96376423e-02
 8.96376423e-02
 8.96376423e-02
 8.96376423e-02
 8.96376423e-02
 8.96376423e-02
 8.96376423e-02
 8.96376423e-02
 8.96376423e-02
 8.96376423e-02
 6.74152948e-02
 6.74152948e-02
 5.10178184e-02
 5.10178184e-02
 5.10178184e-02
 5.10178184e-02
 5.10178184e-02
 5.10178184e-02
 5.10178184e-02
 3.56382830e-02
 3.56382830e-02
 3.56382830e-02
 3.56382830e-02
 3.56382830e-02
 2.86703199e-02
 2.86703199e-02
 2.24476971e-02
 2.24476971e-02
 1.70430932e-02
)
)
1
(
101
(
 7.63679197e-01
 7.63679197e-01
 7.63679197e-01
 7.63679197e-01
 7.63679197e-01
 7.63679197e-01
 7.63679197e-01
 7.63679197e-01
 7.63679197e-01
 7.63679197e-01
 7.63679197e-01
 7.63679197e-01
 7.63679197e-01
 7.63679197e-01
 7.63679197e-01
 7.63679197e-01
 7.63679197e-01
 7.63679197e-01
 7.63679197e-01
 7.63679197e-01
 7.63679197e-01
 7.63679197e-01
 7.63679197e-01
 7.63679197e-01
 7.63679197e-01
 7.63679197e-01
 7.60982915e-01
 7.60982915e-01
 7.60982915e-01
 7.60982915e-01
 7.60982915e-01
 7.60982915e-01
 7.60982915e-01
 7.60982915e-01
 7.60982915e-01
 7.60982915e-01
 7.60982915e-01
 7.60982915e-01
 7.60982915e-01
 7.60982915e-01
 7.60982915e-01
 7.60982915e-01
 7.60982915e-01
 1.94358045e-01
 1.94358045e-01
 1.94358045e-01
 1.94358045e-01
 1.94358045e-01
 1.94358045e-01
 1.94358045e-01
 1.49612854e-01
 1.49612854e-01
 1.49612854e-01
 1.49612854e-01
 1.49612854e-01
 1.49612854e-01
 1.49612854e-01
 1.17395494e-01
 1.17395494e-01
 1.17395494e-01
 1.17395494e-01
 1.17395494e-01
 1.17395494e-01
 1.17395494e-01
 1.17395494e-01
 1.17395494e-01
 1.17395494e-01
 1.17395494e-01
 1.17395494e-01
 1.17395494e-01
 1.17395494e-01
 1.17395494e-01
 8.96376423e-02
 8.96376423e-02
 8.96376423e-02
 8.96376423e-02
 8.96376423e-02
 8.96376423e-02
 8.96376423e-02
 8.96376423e-02
 8.96376423e-02
 8.96376423e-02
 8.96376423e-02
 6.74152948e-02
 6.74152948e-02
 6.74152948e-02
 5.10178184e-02
 5.10178184e-02
 5.10178184e-02
 5.10178184e-02
 5.10178184e-02
 5.10178184e-02
 4.41406821e-02
 3.56382830e-02
 3.56382830e-02
 3.56382830e-02
 3.16800289e-02
 3.16800289e-02
 3.16800289e-02
 2.24476971e-02
 2.24476971e-02
)
)
1
(
101
(
 7.63268406e-01
 7.63268406e-01
 7.63268406e-01
 7.63268406e-01
 7.63268406e-01
 7.63268406e-01
 7.63268406e-01
 7.63268406e-01
 7.63268406e-01
 7.63268406e-01
 7.63268406e-01
 7.63268406e-01
 7.63268406e-01
 7.63268406e-01
 7.63268406e-01
 7.63268406e-01
 7.63268406e-01
 7.63268406e-01
 7.63268406e-01
 7.60982915e-01
 7.60982915e-01
 7.60982915e-01
 7.60982915e-01
 7.60982915e-01
 7.60982915e-01
 7.60982915e-01
 7.60982915e-01
 7.60982915e-01
 7.60982915e-01
 7.60982915e-01
 7.60982915e-01
 7.60982915e-01
 7.60982915e-01
 7.60982915e-01
 7.60982915e-01
 7.60982915e-01
 7.60982915e-01
 7.60982915e-01
 7.60982915e-01
 7.60982915e-01
 7.60982915e-01
 7.60982915e-01
 1.94358045e-01
 1.94358045e-01
 1.94358045e-01
 1.94358045e-01
 1.94358045e-01
 1.94358045e-01
 1.94358045e-01
 1.94358045e-01
 1.94358045e-01
 1.49612854e-01
 1.49612854e-01
 1.49612854e-01
 1.49612854e-01
 1.49612854e-01
 1.49612854e-01
 1.49612854e-01
 1.49612854e-01
 1.17395494e-01
 1.17395494e-01
 1.17395494e-01
 1.17395494e-01
 1.17395494e-01
 1.17395494e-01
 1.17395494e-01
 1.17395494e-01
 1.17395494e-01
 1.17395494e-01
 1.17395494e-01
 1.17395494e-01
 1.17395494e-01
 1.17395494e-01
 8.96376423e-02
 8.96376423e-02
 8.96376423e-02
 8.96376423e-02
 8.96376423e-02
 8.96376423e-02
 8.96376423e-02
 8.96376423e-02
 8.96376423e-02
 8.96376423e-02
 8.96376423e-02
 6.74152948e-02
 6.74152948e-02
 6.74152948e-02
 5.10178184e-02
 5.10178184e-02
 5.10178184e-02
 5.10178184e-02
 5.10178184e-02
 5.10178184e-02
 4.41406821e-02
 4.41406821e-02
 3.79493069e-02
 3.79493069e-02
 3.16800289e-02
 3.16800289e-02
 3.16800289e-02
 3.16800289e-02
)
)
1
(
101
(
 7.62880109e-01
 7.62880109e-01
 7.62880109e-01
 7.62880109e-01
 7.62880109e-01
 7.62880109e-01
 7.62880109e-01
 7.62880109e-01
 7.62880109e-01
 7.62880109e-01
 7.62880109e-01
 7.62880109e-01
 7.62880109e-01
 7.62880109e-01
 7.60982915e-01
 7.60982915e-01
 7.60982915e-01
 7.60982915e-01
 7.60982915e-01
 7.60982915e-01
 7.60982915e-01
 7.60982915e-01
 7.60982915e-01
 7.60982915e-01
 7.60982915e-01
 7.60982915e-01
 7.60982915e-01
 7.60982915e-01
 7.60982915e-01
 7.60982915e-01
 7.60982915e-01
 7.60982915e-01
 7.60982915e-01
 7.60982915e-01
 7.60982915e-01
 7.60982915e-01
 7.60982915e-01
 7.60982915e-01
 7.60982915e-01
 7.60982915e-01
 7.60982915e-01
 7.60982915e-01
 1.94358045e-01
 1.94358045e-01
 1.94358045e-01
 1.94358045e-01
 1.94358045e-01
 1.94358045e-01
 1.94358045e-01
 1.94358045e-01
 1.94358045e-01
 1.94358045e-01
 1.49612854e-01
 1.49612854e-01
 1.49612854e-01
 1.49612854e-01
 1.49612854e-01
 1.49612854e-01
 1.49612854e-01
 1.49612854e-01
 1.17395494e-01
 1.17395494e-01
 1.17395494e-01
 1.17395494e-01
 1.17395494e-01
 1.17395494e-01
 1.17395494e-01
 1.17395494e-01
 1.17395494e-01
 1.17395494e-01
 1.17395494e-01
 1.17395494e-01
 1.17395494e-01
 1.17395494e-01
 1.17395494e-01
 8.96376423e-02
 8.96376423e-02
 8.96376423e-02
 8.96376423e-02
 8.96376423e-02
 8.96376423e-02
 8.96376423e-02
 8.96376423e-02
 8.96376423e-02
 8.96376423e-02
 6.74152948e-02
 6.74152948e-02
 6.74152948e-02
 6.74152948e-02
 5.10178184e-02
 5.10178184e-02
 5.10178184e-02
 5.10178184e-02
 5.10178184e-02
 4.41406821e-02
 4.41406821e-02
 3.79493069e-02
 3.79493069e-02
 3.16800289e-02
 3.16800289e-02
 3.16800289e-02
)
)
1
(
101
(
 7.62462696e-01
 7.62462696e-01
 7.62462696e-01
 7.62462696e-01
 7.62462696e-01
 7.62462696e-01
 7.62462696e-01
 7.62462696e-01
 7.62462696e-01
 7.60982915e-01
 7.60982915e-01
 7.60982915e-01
 7.60982915e-01
 7.60982915e-01
 7.60982915e-01
 7.60982915e-01
 7.60982915e-01
 7.60982915e-01
 7.60982915e-01
 7.60982915e-01
 7.60982915e-01
 7.60982915e-01
 7.60982915e-01
 7.60982915e-01
 7.60982915e-01
 7.60982915e-01
 7.60982915e-01
 7.60982915e-01
 7.60982915e-01
 7.60982915e-01
 7.60982915e-01
 7.60982915e-01
 7.60982915e-01
 7.60982915e-01
 7.60982915e-01
 7.60982915e-01
 7.60982915e-01
 7.60982915e-01
 7.60982915e-01
 7.60982915e-01
 7.60982915e-01
 7.60982915e-01
 1.94358045e-01
 1.94358045e-01
 1.94358045e-01
 1.94358045e-01
 1.94358045e-01
 1.94358045e-01
 1.94358045e-01
 1.94358045e-01
 1.94358045e-01
 1.94358045e-01
 1.94358045e-01
 1.94358045e-01
 1.49612854e-01
 1.49612854e-01
 1.49612854e-01
 1.49612854e-01
 1.49612854e-01
 1.49612854e-01
 1.49612854e-01
 1.49612854e-01
 1.17395494e-01
 1.17395494e-01
 1.17395494e-01
 1.17395494e-01
 1.17395494e-01
 1.17395494e-01
 1.17395494e-01
 1.17395494e-01
 1.17395494e-01
 1.17395494e-01
 1.17395494e-01
 1.17395494e-01
 1.17395494e-01
 1.17395494e-01
 8.96376423e-02
 8.96376423e-02
 8.96376423e-02
 8.96376423e-02
 8.96376423e-02
 8.96376423e-02
 8.96376423e-02
 8.96376423e-02
 8.96376423e-02
 8.96376423e-02
 6.74152948e-02
 6.74152948e-02
 6.74152948e-02
 6.74152948e-02
 5.93127992e-02
 5.10178184e-02
 5.10178184e-02
 5.10178184e-02
 5.10178184e-02
 4.41406821e-02
 4.41406821e-02
 3.79493069e-02
 3.79493069e-02
 3.16800289e-02
 3.16800289e-02
)
)
1
(
101
(
 7.62090727e-01
 7.62090727e-01
 7.62090727e-01
 7.62090727e-01
 7.62090727e-01
 7.62090727e-01
 7.60982915e-01
 7.60982915e-01
 7.60982915e-01
 7.60982915e-01
 7.60982915e-01
 7.60982915e-01
 7.60982915e-01
 7.60982915e-01
 7.60982915e-01
 7.60982915e-01
 7.60982915e-01
 7.60982915e-01
 7.60982915e-01
 7.60982915e-01
 7.60982915e-01
 7.60982915e-01
 7.60982915e-01
 7.60982915e-01
 7.60982915e-01
 7.60982915e-01
 7.60982915e-01
 7.60982915e-01
 7.60982915e-01
 7.60982915e-01
 7.60982915e-01
 7.60982915e-01
 7.60982915e-01
 7.60982915e-01
 7.60982915e-01
 7.60982915e-01
 7.60982915e-01
 7.60982915e-01
 7.60982915e-01
 7.60982915e-01
 7.60982915e-01
 7.60982915e-01
 1.94358045e-01
 1.94358045e-01
 1.94358045e-01
 1.94358045e-01
 1.94358045e-01
 1.94358045e-01
 1.94358045e-01
 1.94358045e-01
 1.94358045e-01
 1.94358045e-01
 1.94358045e-01
 1.94358045e-01
 1.94358045e-01
 1.49612854e-01
 1.49612854e-01
 1.49612854e-01
 1.49612854e-01
 1.49612854e-01
 1.49612854e-01
 1.49612854e-01
 1.49612854e-01
 1.17395494e-01
 1.17395494e-01
 1.17395494e-01
 1.17395494e-01
 1.17395494e-01
 1.17395494e-01
 1.17395494e-01
 1.17395494e-01
 1.17395494e-01
 1.17395494e-01
 1.17395494e-01
 1.17395494e-01
 1.17395494e-01
 1.17395494e-01
 8.96376423e-02
 8.96376423e-02
 8.96376423e-02
 8.96376423e-02
 8.96376423e-02
 8.96376423e-02
 8.96376423e-02
 8.96376423e-02
 8.96376423e-02
 8.96376423e-02
 6.74152948e-02
 6.74152948e-02
 6.74152948e-02
 6.74152948e-02
 5.93127992e-02
 5.93127992e-02
 5.26932375e-02
 5.26932375e-02
 5.26932375e-02
 4.41406821e-02
 4.41406821e-02
 3.79493069e-02
 3.79493069e-02
 3.16800289e-02
)
)
1
(
101
(
 7.61725768e-01
 7.61725768e-01
 7.61725768e-01
 7.60982915e-01
 7.60982915e-01
 7.60982915e-01
 7.60982915e-01
 7.60982915e-01
 7.60982915e-01
 7.60982915e-01
 7.60982915e-01
 7.60982915e-01
 7.60982915e-01
 7.60982915e-01
 7.60982915e-01
 7.60982915e-01
 7.60982915e-01
 7.60982915e-01
 7.60982915e-01
 7.60982915e-01
 7.60982915e-01
 7.60982915e-01
 7.60982915e-01
 7.60982915e-01
 7.60982915e-01
 7.60982915e-01
 7.60982915e-01
 7.60982915e-01
 7.60982915e-01
 7.60982915e-01
 7.60982915e-01
 7.60982915e-01
 7.60982915e-01
 7.60982915e-01
 7.60982915e-01
 7.60982915e-01
 7.60982915e-01
 7.60982915e-01
 7.60982915e-01
 7.60982915e-01
 7.60982915e-01
 2.38949099e-01
 1.94358045e-01
 1.94358045e-01
 1.94358045e-01
 1.94358045e-01
 1.94358045e-01
 1.94358045e-01
 1.94358045e-01
 1.94358045e-01
 1.94358045e-01
 1.94358045e-01
 1.94358045e-01
 1.94358045e-01
 1.94358045e-01
 1.94358045e-01
 1.49612854e-01
 1.49612854e-01
 1.49612854e-01
 1.49612854e-01
 1.49612854e-01
 1.49612854e-01
 1.49612854e-01
 1.49612854e-01
 1.49612854e-01
 1.17395494e-01
 1.17395494e-01
 1.17395494e-01
 1.17395494e-01
 1.17395494e-01
 1.17395494e-01
 1.17395494e-01
 1.17395494e-01
 1.17395494e-01
 1.17395494e-01
 1.17395494e-01
 1.17395494e-01
 1.17395494e-01
 8.96376423e-02
 8.96376423e-02
 8.96376423e-02
 8.96376423e-02
 8.96376423e-02
 8.96376423e-02
 8.96376423e-02
 8.96376423e-02
 8.96376423e-02
 8.96376423e-02
 6.74152948e-02
 6.74152948e-02
 6.74152948e-02
 6.74152948e-02
 5.93127992e-02
 5.93127992e-02
 5.26932375e-02
 5.26932375e-02
 5.26932375e-02
 5.26932375e-02
 4.41406821e-02
 3.79493069e-02
 3.79493069e-02
)
)
1
(
101
(
 7.61383479e-01
 7.61383479e-01
 7.60982915e-01
 7.60982915e-01
 7.60982915e-01
 7.60982915e-01
 7.60982915e-01
 7.60982915e-01
 7.60982915e-01
 7.60982915e-01
 7.60982915e-01
 7.60982915e-01
 7.60982915e-01
 7.60982915e-01
 7.60982915e-01
 7.60982915e-01
 7.60982915e-01
 7.60982915e-01
 7.60982915e-01
 7.60982915e-01
 7.60982915e-01
 7.60982915e-01
 7.60982915e-01
 7.60982915e-01
 7.60982915e-01
 7.60982915e-01
 7.60982915e-01
 7.60982915e-01
 7.60982915e-01
 7.60982915e-01
 7.60982915e-01
 7.60982915e-01
 7.60982915e-01
 7.60982915e-01
 7.60982915e-01
 7.60982915e-01
 7.60982915e-01
 7.60982915e-01
 7.60982915e-01
 7.60982915e-01
 7.60982915e-01
 2.38949099e-01
 2.38949099e-01
 1.94358045e-01
 1.94358045e-01
 1.94358045e-01
 1.94358045e-01
 1.94358045e-01
 1.94358045e-01
 1.94358045e-01
 1.94358045e-01
 1.94358045e-01
 1.94358045e-01
 1.94358045e-01
 1.94358045e-01
 1.94358045e-01
 1.94358045e-01
 1.49612854e-01
 1.49612854e-01
 1.49612854e-01
 1.49612854e-01
 1.49612854e-01
 1.49612854e-01
 1.49612854e-01
 1.49612854e-01
 1.49612854e-01
 1.17395494e-01
 1.17395494e-01
 1.17395494e-01
 1.17395494e-01
 1.17395494e-01
 1.17395494e-01
 1.17395494e-01
 1.17395494e-01
 1.17395494e-01
 1.17395494e-01
 1.17395494e-01
 1.17395494e-01
 1.17395494e-01
 1.17395494e-01
 8.96376423e-02
 8.96376423e-02
 8.96376423e-02
 8.96376423e-02
 8.96376423e-02
 8.96376423e-02
 8.96376423e-02
 8.96376423e-02
 7.59789286e-02
 6.74152948e-02
 6.74152948e-02
 6.74152948e-02
 6.19033821e-02
 6.19033821e-02
 6.19033821e-02
 5.26932375e-02
 5.26932375e-02
 5.26932375e-02
 5.26932375e-02
 5.26932375e-02
 3.79493069e-02
)
)
1
(
101
(
 7.61067268e-01
 7.60982915e-01
 7.60982915e-01
 7.60982915e-01
 7.60982915e-01
 7.60982915e-01
 7.60982915e-01
 7.60982915e-01
 7.60982915e-01
 7.60982915e-01
 7.60982915e-01
 7.60982915e-01
 7.60982915e-01
 7.60982915e-01
 7.60982915e-01
 7.60982915e-01
 7.60982915e-01
 7.60982915e-01
 7.60982915e-01
 7.60982915e-01
 7.60982915e-01
 7.60982915e-01
 7.60982915e-01
 7.60982915e-01
 7.60982915e-01
 7.60982915e-01
 7.60982915e-01
 7.60982915e-01
 7.60982915e-01
 7.60982915e-01
 7.60982915e-01
 7.60982915e-01
 7.60982915e-01
 7.60982915e-01
 7.60982915e-01
 7.60982915e-01
 7.60982915e-01
 7.60982915e-01
 7.60982915e-01
 7.60982915e-01
 2.38949099e-01
 2.38949099e-01
 2.38949099e-01
 2.38949099e-01
 1.94358045e-01
 1.94358045e-01
 1.94358045e-01
 1.94358045e-01
 1.94358045e-01
 1.94358045e-01
 1.94358045e-01
 1.94358045e-01
 1.94358045e-01
 1.94358045e-01
 1.94358045e-01
 1.94358045e-01
 1.94358045e-01
 1.94358045e-01
 1.49612854e-01
 1.49612854e-01
 1.49612854e-01
 1.49612854e-01
 1.49612854e-01
 1.49612854e-01
 1.49612854e-01
 1.49612854e-01
 1.49612854e-01
 1.49612854e-01
 1.17395494e-01
 1.17395494e-01
 1.17395494e-01
 1.17395494e-01
 1.17395494e-01
 1.17395494e-01
 1.17395494e-01
 1.17395494e-01
 1.17395494e-01
 1.17395494e-01
 1.17395494e-01
 1.17395494e-01
 1.17395494e-01
 9.61126696e-02
 8.96376423e-02
 8.96376423e-02
 8.96376423e-02
 8.96376423e-02
 8.96376423e-02
 8.96376423e-02
 8.96376423e-02
 7.59789286e-02
 7.59789286e-02
 6.91680741e-02
 6.91680741e-02
 6.19033821e-02
 6.19033821e-02
 6.19033821e-02
 6.19033821e-02
 5.26932375e-02
 5.26932375e-02
 5.26932375e-02
 5.26932375e-02
)
)
1
(
101
(
 7.61067268e-01
 7.60672487e-01
 7.60672487e-01
 7.60672487e-01
 7.60672487e-01
 7.60672487e-01
 7.60672487e-01
 7.60672487e-01
 7.60672487e-01
 7.60672487e-01
 7.60672487e-01
 7.60672487e-01
 7.60672487e-01
 7.60672487e-01
 7.60672487e-01
 7.60672487e-01
 7.60672487e-01
 7.60672487e-01
 7.60672487e-01
 7.60672487e-01
 7.60672487e-01
 7.60672487e-01
 7.60672487e-01
 7.60672487e-01
 7.60672487e-01
 7.60672487e-01
 7.60672487e-01
 7.60672487e-01
 7.60672487e-01
 7.60672487e-01
 7.60672487e-01
 7.60672487e-01
 7.60672487e-01
 7.60672487e-01
 7.60672487e-01
 7.60672487e-01
 7.60672487e-01
 7.60672487e-01
 7.60672487e-01
 7.60672487e-01
 2.38949099e-01
 2.38949099e-01
 2.38949099e-01
 2.38949099e-01
 2.38949099e-01
 1.94358045e-01
 1.94358045e-01
 1.94358045e-01
 1.94358045e-01
 1.94358045e-01
 1.94358045e-01
 1.94358045e-01
 1.94358045e-01
 1.94358045e-01
 1.94358045e-01
 1.94358045e-01
 1.94358045e-01
 1.94358045e-01
 1.94358045e-01
 1.49612854e-01
 1.49612854e-01
 1.49612854e-01
 1.49612854e-01
 1.49612854e-01
 1.49612854e-01
 1.49612854e-01
 1.49612854e-01
 1.49612854e-01
 1.49612854e-01
 1.17395494e-01
 1.17395494e-01
 1.17395494e-01
 1.17395494e-01
 1.17395494e-01
 1.17395494e-01
 1.17395494e-01
 1.17395494e-01
 1.17395494e-01
 1.17395494e-01
 1.17395494e-01
 1.17395494e-01
 1.17395494e-01
 9.61126696e-02
 9.61126696e-02
 8.96376423e-02
 8.96376423e-02
 8.96376423e-02
 8.96376423e-02
 8.96376423e-02
 7.59789286e-02
 7.59789286e-02
 7.59789286e-02
 6.91680741e-02
 6.91680741e-02
 6.19033821e-02
 6.19033821e-02
 6.19033821e-02
 6.19033821e-02
 6.19033821e-02
 5.26932375e-02
 5.26932375e-02
)
)
1
(
101
(
 7.60311005e-01
 7.60311005e-01
 7.60311005e-01
 7.60311005e-01
 7.60311005e-01
 7.60311005e-01
 7.60311005e-01
 7.60311005e-01
 7.60311005e-01
 7.60311005e-01
 7.60311005e-01
 7.60311005e-01
 7.60311005e-01
 7.60311005e-01
 7.60311005e-01
 7.60311005e-01
 7.60311005e-01
 7.60311005e-01
 7.60311005e-01
 7.60311005e-01
 7.60311005e-01
 7.60311005e-01
 7.60311005e-01
 7.60311005e-01
 7.60311005e-01
 7.60311005e-01
 7.60311005e-01
 7.60311005e-01
 7.60311005e-01
 7.60311005e-01
 7.60311005e-01
 7.60311005e-01
 7.60311005e-01
 7.60311005e-01
 7.60311005e-01
 7.60311005e-01
 7.60311005e-01
 7.60311005e-01
 7.60311005e-01
 7.60311005e-01
 2.38949099e-01
 2.38949099e-01
 2.38949099e-01
 2.38949099e-01
 2.38949099e-01
 2.38949099e-01
 1.94358045e-01
 1.94358045e-01
 1.94358045e-01
 1.94358045e-01
 1.94358045e-01
 1.94358045e-01
 1.94358045e-01
 1.94358045e-01
 1.94358045e-01
 1.94358045e-01
 1.94358045e-01
 1.94358045e-01
 1.94358045e-01
 1.94358045e-01
 1.94358045e-01
 1.49612854e-01
 1.49612854e-01
 1.49612854e-01
 1.49612854e-01
 1.49612854e-01
 1.49612854e-01
 1.49612854e-01
 1.49612854e-01
 1.49612854e-01
 1.49612854e-01
 1.17395494e-01
 1.17395494e-01
 1.17395494e-01
 1.17395494e-01
 1.17395494e-01
 1.17395494e-01
 1.17395494e-01
 1.17395494e-01
 1.17395494e-01
 1.17395494e-01
 1.17395494e-01
 1.17395494e-01
 9.61126696e-02
 9.61126696e-02
 9.61126696e-02
 8.96376423e-02
 8.96376423e-02
 8.96376423e-02
 8.96376423e-02
 7.59789286e-02
 7.59789286e-02
 7.59789286e-02
 6.91680741e-02
 6.91680741e-02
 6.19033821e-02
 6.19033821e-02
 6.19033821e-02
 6.19033821e-02
 6.19033821e-02
 6.19033821e-02
)
)
1
(
101
(
 7.59974830e-01
 7.59974830e-01
 7.59974830e-01
 7.59974830e-01
 7.59974830e-01
 7.59974830e-01
 7.59974830e-01
 7.59974830e-01
 7.59974830e-01
 7.59974830e-01
 7.59974830e-01
 7.59974830e-01
 7.59974830e-01
 7.59974830e-01
 7.59974830e-01
 7.59974830e-01
 7.59974830e-01
 7.59974830e-01
 7.59974830e-01
 7.59974830e-01
 7.59974830e-01
 7.59974830e-01
 7.59974830e-01
 7.59974830e-01
 7.59974830e-01
 7.59974830e-01
 7.59974830e-01
 7.59974830e-01
 7.59974830e-01
 7.59974830e-01
 7.59974830e-01
 7.59974830e-01
 7.59974830e-01
 7.59974830e-01
 7.59974830e-01
 7.59974830e-01
 7.59974830e-01
 7.59974830e-01
 7.59974830e-01
 2.38949099e-01
 2.38949099e-01
 2.38949099e-01
 2.38949099e-01
 2.38949099e-01
 2.38949099e-01
 2.38949099e-01
 2.38949099e-01
 2.38949099e-01
 1.94358045e-01
 1.94358045e-01
 1.94358045e-01
 1.94358045e-01
 1.94358045e-01
 1.94358045e-01
 1.94358045e-01
 1.94358045e-01
 1.94358045e-01
 1.94358045e-01
 1.94358045e-01
 1.94358045e-01
 1.94358045e-01
 1.94358045e-01
 1.49612854e-01
 1.49612854e-01
 1.49612854e-01
 1.49612854e-01
 1.49612854e-01
 1.49612854e-01
 1.49612854e-01
 1.49612854e-01
 1.49612854e-01
 1.49612854e-01
 1.17395494e-01
 1.17395494e-01
 1.17395494e-01
 1.17395494e-01
 1.17395494e-01
 1.17395494e-01
 1.17395494e-01
 1.17395494e-01
 1.17395494e-01
 1.17395494e-01
 1.17395494e-01
 1.17395494e-01
 9.61126696e-02
 9.61126696e-02
 9.61126696e-02
 9.61126696e-02
 8.93055332e-02
 8.93055332e-02
 8.93055332e-02
 7.59789286e-02
 7.59789286e-02
 7.59789286e-02
 6.91680741e-02
 6.91680741e-02
 6.19033821e-02
 6.19033821e-02
 6.19033821e-02