/*--------------------------------*- C++ -*----------------------------------*\
| =========                 |                                                 |
| \\      /  F ield        | OpenFOAM: The Open Source CFD Toolbox           |
|  \\    /   O peration    | Version:  7                                     |
|   \\  /    A nd          | Web:      http://www.OpenFOAM.com               |
|    \\/     M anipulation |                                                 |
\*---------------------------------------------------------------------------*/

FoamFile
{
    version     2.0;
    format      ascii;
    class       dictionary;
    object      Y_N_table;
}

Y_N_table
2
(
101
(
1
(
101
(
 1.60141563e-17
 1.60141563e-17
 1.60141563e-17
 1.60141563e-17
 1.60141563e-17
 1.60141563e-17
 1.60141563e-17
 1.60141563e-17
 1.60141563e-17
 1.60141563e-17
 1.60141563e-17
 1.60141563e-17
 1.60141563e-17
 1.60141563e-17
 1.60141563e-17
 1.60141563e-17
 1.60141563e-17
 1.60141563e-17
 1.60141563e-17
 1.60141563e-17
 1.60141563e-17
 1.60141563e-17
 1.60141563e-17
 1.60141563e-17
 1.60141563e-17
 1.60141563e-17
 1.60141563e-17
 1.60141563e-17
 1.60141563e-17
 1.60141563e-17
 1.60141563e-17
 1.60141563e-17
 1.60141563e-17
 1.60141563e-17
 1.60141563e-17
 1.60141563e-17
 1.60141563e-17
 1.60141563e-17
 1.60141563e-17
 1.60141563e-17
 1.60141563e-17
 1.60141563e-17
 1.60141563e-17
 1.60141563e-17
 1.60141563e-17
 6.57603613e-16
 6.57603613e-16
 6.39466907e-15
 6.39466907e-15
 6.39466907e-15
 6.39466907e-15
 6.39466907e-15
 6.39466907e-15
 6.39466907e-15
 6.39466907e-15
 6.39466907e-15
 6.39466907e-15
 6.39466907e-15
 6.39466907e-15
 6.39466907e-15
 6.39466907e-15
 6.39466907e-15
 6.39466907e-15
 5.06156742e-15
 5.06156742e-15
 5.06156742e-15
 5.06156742e-15
 5.06156742e-15
 5.06156742e-15
 5.06156742e-15
 5.06156742e-15
 5.06156742e-15
 5.06156742e-15
 5.06156742e-15
 5.06156742e-15
 4.95994277e-17
 4.95994277e-17
 4.95994277e-17
 4.95994277e-17
 4.95994277e-17
 4.95994277e-17
 4.95994277e-17
 9.48742045e-16
 9.48742045e-16
 9.48742045e-16
 9.48742045e-16
 9.48742045e-16
 9.48742045e-16
 3.38927783e-15
 3.38927783e-15
 3.38927783e-15
 3.38927783e-15
 3.38927783e-15
 3.38927783e-15
 3.38927783e-15
 5.76922904e-15
 5.76922904e-15
 5.76922904e-15
 5.76922904e-15
 5.76922904e-15
 1.23882919e-14
)
)
1
(
101
(
 8.70652809e-16
 8.70652809e-16
 8.70652809e-16
 8.70652809e-16
 8.70652809e-16
 8.70652809e-16
 8.70652809e-16
 8.70652809e-16
 8.70652809e-16
 8.70652809e-16
 8.70652809e-16
 8.70652809e-16
 8.70652809e-16
 8.70652809e-16
 8.70652809e-16
 8.70652809e-16
 8.70652809e-16
 8.70652809e-16
 8.70652809e-16
 8.70652809e-16
 8.70652809e-16
 8.70652809e-16
 8.70652809e-16
 8.70652809e-16
 8.70652809e-16
 8.70652809e-16
 8.70652809e-16
 8.70652809e-16
 8.70652809e-16
 8.70652809e-16
 8.70652809e-16
 8.70652809e-16
 8.70652809e-16
 8.70652809e-16
 8.70652809e-16
 8.70652809e-16
 8.70652809e-16
 8.70652809e-16
 8.70652809e-16
 8.70652809e-16
 8.70652809e-16
 8.70652809e-16
 8.70652809e-16
 8.70652809e-16
 8.70652809e-16
 6.57603613e-16
 6.57603613e-16
 6.57603613e-16
 6.39466907e-15
 6.39466907e-15
 6.39466907e-15
 6.39466907e-15
 6.39466907e-15
 6.39466907e-15
 6.39466907e-15
 6.39466907e-15
 6.39466907e-15
 6.39466907e-15
 6.39466907e-15
 6.39466907e-15
 6.39466907e-15
 6.39466907e-15
 6.39466907e-15
 6.39466907e-15
 6.39466907e-15
 5.06156742e-15
 5.06156742e-15
 5.06156742e-15
 5.06156742e-15
 5.06156742e-15
 5.06156742e-15
 5.06156742e-15
 5.06156742e-15
 5.06156742e-15
 5.06156742e-15
 5.06156742e-15
 5.06156742e-15
 4.95994277e-17
 4.95994277e-17
 4.95994277e-17
 4.95994277e-17
 4.95994277e-17
 4.95994277e-17
 9.48742045e-16
 9.48742045e-16
 9.48742045e-16
 9.48742045e-16
 9.48742045e-16
 9.48742045e-16
 9.48742045e-16
 3.38927783e-15
 3.38927783e-15
 3.38927783e-15
 3.38927783e-15
 3.38927783e-15
 3.38927783e-15
 1.26511583e-15
 5.76922904e-15
 5.76922904e-15
 5.76922904e-15
 1.03321209e-14
)
)
1
(
101
(
 1.98033987e-15
 1.98033987e-15
 1.98033987e-15
 1.98033987e-15
 1.98033987e-15
 1.98033987e-15
 1.98033987e-15
 1.98033987e-15
 1.98033987e-15
 1.98033987e-15
 1.98033987e-15
 1.98033987e-15
 1.98033987e-15
 1.98033987e-15
 1.98033987e-15
 1.98033987e-15
 1.98033987e-15
 1.98033987e-15
 1.98033987e-15
 1.98033987e-15
 1.98033987e-15
 1.98033987e-15
 1.98033987e-15
 1.98033987e-15
 1.98033987e-15
 1.98033987e-15
 1.98033987e-15
 1.98033987e-15
 1.98033987e-15
 1.98033987e-15
 1.98033987e-15
 1.98033987e-15
 1.98033987e-15
 1.98033987e-15
 1.98033987e-15
 1.98033987e-15
 1.98033987e-15
 1.98033987e-15
 1.98033987e-15
 1.98033987e-15
 1.98033987e-15
 1.98033987e-15
 1.98033987e-15
 1.98033987e-15
 6.57603613e-16
 6.57603613e-16
 6.57603613e-16
 6.57603613e-16
 6.57603613e-16
 6.57603613e-16
 6.39466907e-15
 6.39466907e-15
 6.39466907e-15
 6.39466907e-15
 6.39466907e-15
 6.39466907e-15
 6.39466907e-15
 6.39466907e-15
 6.39466907e-15
 6.39466907e-15
 6.39466907e-15
 6.39466907e-15
 6.39466907e-15
 6.39466907e-15
 6.39466907e-15
 6.39466907e-15
 5.06156742e-15
 5.06156742e-15
 5.06156742e-15
 5.06156742e-15
 5.06156742e-15
 5.06156742e-15
 5.06156742e-15
 5.06156742e-15
 5.06156742e-15
 5.06156742e-15
 5.06156742e-15
 5.06156742e-15
 4.95994277e-17
 4.95994277e-17
 4.95994277e-17
 4.95994277e-17
 4.95994277e-17
 4.95994277e-17
 4.95994277e-17
 9.48742045e-16
 9.48742045e-16
 9.48742045e-16
 9.48742045e-16
 9.48742045e-16
 9.48742045e-16
 3.38927783e-15
 3.38927783e-15
 3.38927783e-15
 3.38927783e-15
 3.38927783e-15
 3.38927783e-15
 1.26511583e-15
 1.26511583e-15
 2.88539984e-15
 2.88539984e-15
)
)
1
(
101
(
 2.35649405e-15
 2.35649405e-15
 2.35649405e-15
 2.35649405e-15
 2.35649405e-15
 2.35649405e-15
 2.35649405e-15
 2.35649405e-15
 2.35649405e-15
 2.35649405e-15
 2.35649405e-15
 2.35649405e-15
 2.35649405e-15
 2.35649405e-15
 2.35649405e-15
 2.35649405e-15
 2.35649405e-15
 2.35649405e-15
 2.35649405e-15
 2.35649405e-15
 2.35649405e-15
 2.35649405e-15
 2.35649405e-15
 2.35649405e-15
 2.35649405e-15
 2.35649405e-15
 2.35649405e-15
 2.35649405e-15
 2.35649405e-15
 2.35649405e-15
 2.35649405e-15
 2.35649405e-15
 2.35649405e-15
 2.35649405e-15
 2.35649405e-15
 2.35649405e-15
 2.35649405e-15
 2.35649405e-15
 2.35649405e-15
 2.35649405e-15
 2.35649405e-15
 2.35649405e-15
 2.35649405e-15
 2.35649405e-15
 9.23043612e-16
 6.57603613e-16
 6.57603613e-16
 6.57603613e-16
 6.57603613e-16
 6.57603613e-16
 6.57603613e-16
 6.39466907e-15
 6.39466907e-15
 6.39466907e-15
 6.39466907e-15
 6.39466907e-15
 6.39466907e-15
 6.39466907e-15
 6.39466907e-15
 6.39466907e-15
 6.39466907e-15
 6.39466907e-15
 6.39466907e-15
 6.39466907e-15
 6.39466907e-15
 6.39466907e-15
 6.39466907e-15
 5.06156742e-15
 5.06156742e-15
 5.06156742e-15
 5.06156742e-15
 5.06156742e-15
 5.06156742e-15
 5.06156742e-15
 5.06156742e-15
 5.06156742e-15
 5.06156742e-15
 5.06156742e-15
 5.06156742e-15
 5.47651797e-16
 4.95994277e-17
 4.95994277e-17
 4.95994277e-17
 4.95994277e-17
 4.95994277e-17
 4.95994277e-17
 9.48742045e-16
 9.48742045e-16
 9.48742045e-16
 9.48742045e-16
 9.48742045e-16
 9.48742045e-16
 9.48742045e-16
 3.38927783e-15
 3.38927783e-15
 3.38927783e-15
 3.38927783e-15
 3.38927783e-15
 1.26511583e-15
 2.09812939e-15
 2.09812939e-15
)
)
1
(
101
(
 4.01246686e-15
 4.01246686e-15
 4.01246686e-15
 4.01246686e-15
 4.01246686e-15
 4.01246686e-15
 4.01246686e-15
 4.01246686e-15
 4.01246686e-15
 4.01246686e-15
 4.01246686e-15
 4.01246686e-15
 4.01246686e-15
 4.01246686e-15
 4.01246686e-15
 4.01246686e-15
 4.01246686e-15
 4.01246686e-15
 4.01246686e-15
 4.01246686e-15
 4.01246686e-15
 4.01246686e-15
 4.01246686e-15
 4.01246686e-15
 4.01246686e-15
 4.01246686e-15
 4.01246686e-15
 4.01246686e-15
 4.01246686e-15
 4.01246686e-15
 4.01246686e-15
 4.01246686e-15
 4.01246686e-15
 4.01246686e-15
 4.01246686e-15
 4.01246686e-15
 4.01246686e-15
 4.01246686e-15
 4.01246686e-15
 4.01246686e-15
 4.01246686e-15
 4.01246686e-15
 4.01246686e-15
 4.01246686e-15
 9.23043612e-16
 9.23043612e-16
 9.23043612e-16
 6.57603613e-16
 6.57603613e-16
 6.57603613e-16
 6.57603613e-16
 6.57603613e-16
 6.57603613e-16
 6.39466907e-15
 6.39466907e-15
 6.39466907e-15
 6.39466907e-15
 6.39466907e-15
 6.39466907e-15
 6.39466907e-15
 6.39466907e-15
 6.39466907e-15
 6.39466907e-15
 6.39466907e-15
 6.39466907e-15
 6.39466907e-15
 6.39466907e-15
 6.39466907e-15
 5.06156742e-15
 5.06156742e-15
 5.06156742e-15
 5.06156742e-15
 5.06156742e-15
 5.06156742e-15
 5.06156742e-15
 5.06156742e-15
 5.06156742e-15
 5.06156742e-15
 5.06156742e-15
 5.06156742e-15
 5.47651797e-16
 4.95994277e-17
 4.95994277e-17
 4.95994277e-17
 4.95994277e-17
 4.95994277e-17
 4.95994277e-17
 4.95994277e-17
 9.48742045e-16
 9.48742045e-16
 9.48742045e-16
 9.48742045e-16
 9.48742045e-16
 9.48742045e-16
 5.64009916e-16
 3.38927783e-15
 3.38927783e-15
 3.38927783e-15
 1.04718848e-15
 1.04718848e-15
 2.09812939e-15
)
)
1
(
101
(
 4.89689999e-15
 4.89689999e-15
 4.89689999e-15
 4.89689999e-15
 4.89689999e-15
 4.89689999e-15
 4.89689999e-15
 4.89689999e-15
 4.89689999e-15
 4.89689999e-15
 4.89689999e-15
 4.89689999e-15
 4.89689999e-15
 4.89689999e-15
 4.89689999e-15
 4.89689999e-15
 4.89689999e-15
 4.89689999e-15
 4.89689999e-15
 4.89689999e-15
 4.89689999e-15
 4.89689999e-15
 4.89689999e-15
 4.89689999e-15
 4.89689999e-15
 4.89689999e-15
 4.89689999e-15
 4.89689999e-15
 4.89689999e-15
 4.89689999e-15
 4.89689999e-15
 4.89689999e-15
 4.89689999e-15
 4.89689999e-15
 4.89689999e-15
 4.89689999e-15
 4.89689999e-15
 4.89689999e-15
 4.89689999e-15
 4.89689999e-15
 4.89689999e-15
 4.89689999e-15
 1.10811889e-13
 9.23043612e-16
 9.23043612e-16
 9.23043612e-16
 9.23043612e-16
 9.23043612e-16
 6.57603613e-16
 6.57603613e-16
 6.57603613e-16
 6.57603613e-16
 6.57603613e-16
 6.57603613e-16
 6.39466907e-15
 6.39466907e-15
 6.39466907e-15
 6.39466907e-15
 6.39466907e-15
 6.39466907e-15
 6.39466907e-15
 6.39466907e-15
 6.39466907e-15
 6.39466907e-15
 6.39466907e-15
 6.39466907e-15
 6.39466907e-15
 6.39466907e-15
 6.39466907e-15
 6.39466907e-15
 5.06156742e-15
 5.06156742e-15
 5.06156742e-15
 5.06156742e-15
 5.06156742e-15
 5.06156742e-15
 5.06156742e-15
 5.06156742e-15
 5.06156742e-15
 5.06156742e-15
 5.06156742e-15
 5.47651797e-16
 5.47651797e-16
 4.95994277e-17
 4.95994277e-17
 4.95994277e-17
 4.95994277e-17
 4.95994277e-17
 4.95994277e-17
 9.48742045e-16
 9.48742045e-16
 9.48742045e-16
 9.48742045e-16
 9.48742045e-16
 9.48742045e-16
 5.64009916e-16
 5.64009916e-16
 8.83226576e-16
 8.83226576e-16
 1.04718848e-15
 1.04718848e-15
)
)
1
(
101
(
 7.31999576e-15
 7.31999576e-15
 7.31999576e-15
 7.31999576e-15
 7.31999576e-15
 7.31999576e-15
 7.31999576e-15
 7.31999576e-15
 7.31999576e-15
 7.31999576e-15
 7.31999576e-15
 7.31999576e-15
 7.31999576e-15
 7.31999576e-15
 7.31999576e-15
 7.31999576e-15
 7.31999576e-15
 7.31999576e-15
 7.31999576e-15
 7.31999576e-15
 7.31999576e-15
 7.31999576e-15
 7.31999576e-15
 7.31999576e-15
 7.31999576e-15
 7.31999576e-15
 7.31999576e-15
 7.31999576e-15
 7.31999576e-15
 7.31999576e-15
 7.31999576e-15
 7.31999576e-15
 7.31999576e-15
 1.10811889e-13
 1.10811889e-13
 1.10811889e-13
 1.10811889e-13
 1.10811889e-13
 1.10811889e-13
 1.10811889e-13
 1.10811889e-13
 1.10811889e-13
 1.10811889e-13
 9.23043612e-16
 9.23043612e-16
 9.23043612e-16
 9.23043612e-16
 9.23043612e-16
 9.23043612e-16
 6.57603613e-16
 6.57603613e-16
 6.57603613e-16
 6.57603613e-16
 6.57603613e-16
 6.57603613e-16
 6.57603613e-16
 6.39466907e-15
 6.39466907e-15
 6.39466907e-15
 6.39466907e-15
 6.39466907e-15
 6.39466907e-15
 6.39466907e-15
 6.39466907e-15
 6.39466907e-15
 6.39466907e-15
 6.39466907e-15
 6.39466907e-15
 6.39466907e-15
 6.39466907e-15
 6.39466907e-15
 5.06156742e-15
 5.06156742e-15
 5.06156742e-15
 5.06156742e-15
 5.06156742e-15
 5.06156742e-15
 5.06156742e-15
 5.06156742e-15
 5.06156742e-15
 5.06156742e-15
 5.06156742e-15
 5.47651797e-16
 5.47651797e-16
 4.95994277e-17
 4.95994277e-17
 4.95994277e-17
 4.95994277e-17
 4.95994277e-17
 4.95994277e-17
 4.95994277e-17
 9.48742045e-16
 9.48742045e-16
 9.48742045e-16
 9.48742045e-16
 9.48742045e-16
 5.64009916e-16
 5.64009916e-16
 8.83226576e-16
 8.83226576e-16
 1.04718848e-15
)
)
1
(
101
(
 9.94791937e-15
 9.94791937e-15
 9.94791937e-15
 9.94791937e-15
 9.94791937e-15
 9.94791937e-15
 9.94791937e-15
 9.94791937e-15
 9.94791937e-15
 9.94791937e-15
 9.94791937e-15
 9.94791937e-15
 9.94791937e-15
 9.94791937e-15
 9.94791937e-15
 9.94791937e-15
 9.94791937e-15
 9.94791937e-15
 9.94791937e-15
 9.94791937e-15
 9.94791937e-15
 9.94791937e-15
 9.94791937e-15
 9.94791937e-15
 9.94791937e-15
 9.94791937e-15
 1.10811889e-13
 1.10811889e-13
 1.10811889e-13
 1.10811889e-13
 1.10811889e-13
 1.10811889e-13
 1.10811889e-13
 1.10811889e-13
 1.10811889e-13
 1.10811889e-13
 1.10811889e-13
 1.10811889e-13
 1.10811889e-13
 1.10811889e-13
 1.10811889e-13
 1.10811889e-13
 1.10811889e-13
 9.23043612e-16
 9.23043612e-16
 9.23043612e-16
 9.23043612e-16
 9.23043612e-16
 9.23043612e-16
 9.23043612e-16
 6.57603613e-16
 6.57603613e-16
 6.57603613e-16
 6.57603613e-16
 6.57603613e-16
 6.57603613e-16
 6.57603613e-16
 6.39466907e-15
 6.39466907e-15
 6.39466907e-15
 6.39466907e-15
 6.39466907e-15
 6.39466907e-15
 6.39466907e-15
 6.39466907e-15
 6.39466907e-15
 6.39466907e-15
 6.39466907e-15
 6.39466907e-15
 6.39466907e-15
 6.39466907e-15
 6.39466907e-15
 5.06156742e-15
 5.06156742e-15
 5.06156742e-15
 5.06156742e-15
 5.06156742e-15
 5.06156742e-15
 5.06156742e-15
 5.06156742e-15
 5.06156742e-15
 5.06156742e-15
 5.06156742e-15
 5.47651797e-16
 5.47651797e-16
 5.47651797e-16
 4.95994277e-17
 4.95994277e-17
 4.95994277e-17
 4.95994277e-17
 4.95994277e-17
 4.95994277e-17
 2.00007047e-15
 9.48742045e-16
 9.48742045e-16
 9.48742045e-16
 1.64496548e-15
 1.64496548e-15
 1.64496548e-15
 8.83226576e-16
 8.83226576e-16
)
)
1
(
101
(
 1.12334073e-14
 1.12334073e-14
 1.12334073e-14
 1.12334073e-14
 1.12334073e-14
 1.12334073e-14
 1.12334073e-14
 1.12334073e-14
 1.12334073e-14
 1.12334073e-14
 1.12334073e-14
 1.12334073e-14
 1.12334073e-14
 1.12334073e-14
 1.12334073e-14
 1.12334073e-14
 1.12334073e-14
 1.12334073e-14
 1.12334073e-14
 1.10811889e-13
 1.10811889e-13
 1.10811889e-13
 1.10811889e-13
 1.10811889e-13
 1.10811889e-13
 1.10811889e-13
 1.10811889e-13
 1.10811889e-13
 1.10811889e-13
 1.10811889e-13
 1.10811889e-13
 1.10811889e-13
 1.10811889e-13
 1.10811889e-13
 1.10811889e-13
 1.10811889e-13
 1.10811889e-13
 1.10811889e-13
 1.10811889e-13
 1.10811889e-13
 1.10811889e-13
 1.10811889e-13
 9.23043612e-16
 9.23043612e-16
 9.23043612e-16
 9.23043612e-16
 9.23043612e-16
 9.23043612e-16
 9.23043612e-16
 9.23043612e-16
 9.23043612e-16
 6.57603613e-16
 6.57603613e-16
 6.57603613e-16
 6.57603613e-16
 6.57603613e-16
 6.57603613e-16
 6.57603613e-16
 6.57603613e-16
 6.39466907e-15
 6.39466907e-15
 6.39466907e-15
 6.39466907e-15
 6.39466907e-15
 6.39466907e-15
 6.39466907e-15
 6.39466907e-15
 6.39466907e-15
 6.39466907e-15
 6.39466907e-15
 6.39466907e-15
 6.39466907e-15
 6.39466907e-15
 5.06156742e-15
 5.06156742e-15
 5.06156742e-15
 5.06156742e-15
 5.06156742e-15
 5.06156742e-15
 5.06156742e-15
 5.06156742e-15
 5.06156742e-15
 5.06156742e-15
 5.06156742e-15
 5.47651797e-16
 5.47651797e-16
 5.47651797e-16
 4.95994277e-17
 4.95994277e-17
 4.95994277e-17
 4.95994277e-17
 4.95994277e-17
 4.95994277e-17
 2.00007047e-15
 2.00007047e-15
 1.09163040e-16
 1.09163040e-16
 1.64496548e-15
 1.64496548e-15
 1.64496548e-15
 1.64496548e-15
)
)
1
(
101
(
 1.83587283e-14
 1.83587283e-14
 1.83587283e-14
 1.83587283e-14
 1.83587283e-14
 1.83587283e-14
 1.83587283e-14
 1.83587283e-14
 1.83587283e-14
 1.83587283e-14
 1.83587283e-14
 1.83587283e-14
 1.83587283e-14
 1.83587283e-14
 1.10811889e-13
 1.10811889e-13
 1.10811889e-13
 1.10811889e-13
 1.10811889e-13
 1.10811889e-13
 1.10811889e-13
 1.10811889e-13
 1.10811889e-13
 1.10811889e-13
 1.10811889e-13
 1.10811889e-13
 1.10811889e-13
 1.10811889e-13
 1.10811889e-13
 1.10811889e-13
 1.10811889e-13
 1.10811889e-13
 1.10811889e-13
 1.10811889e-13
 1.10811889e-13
 1.10811889e-13
 1.10811889e-13
 1.10811889e-13
 1.10811889e-13
 1.10811889e-13
 1.10811889e-13
 1.10811889e-13
 9.23043612e-16
 9.23043612e-16
 9.23043612e-16
 9.23043612e-16
 9.23043612e-16
 9.23043612e-16
 9.23043612e-16
 9.23043612e-16
 9.23043612e-16
 9.23043612e-16
 6.57603613e-16
 6.57603613e-16
 6.57603613e-16
 6.57603613e-16
 6.57603613e-16
 6.57603613e-16
 6.57603613e-16
 6.57603613e-16
 6.39466907e-15
 6.39466907e-15
 6.39466907e-15
 6.39466907e-15
 6.39466907e-15
 6.39466907e-15
 6.39466907e-15
 6.39466907e-15
 6.39466907e-15
 6.39466907e-15
 6.39466907e-15
 6.39466907e-15
 6.39466907e-15
 6.39466907e-15
 6.39466907e-15
 5.06156742e-15
 5.06156742e-15
 5.06156742e-15
 5.06156742e-15
 5.06156742e-15
 5.06156742e-15
 5.06156742e-15
 5.06156742e-15
 5.06156742e-15
 5.06156742e-15
 5.47651797e-16
 5.47651797e-16
 5.47651797e-16
 5.47651797e-16
 4.95994277e-17
 4.95994277e-17
 4.95994277e-17
 4.95994277e-17
 4.95994277e-17
 2.00007047e-15
 2.00007047e-15
 1.09163040e-16
 1.09163040e-16
 1.64496548e-15
 1.64496548e-15
 1.64496548e-15
)
)
1
(
101
(
 2.14530785e-14
 2.14530785e-14
 2.14530785e-14
 2.14530785e-14
 2.14530785e-14
 2.14530785e-14
 2.14530785e-14
 2.14530785e-14
 2.14530785e-14
 1.10811889e-13
 1.10811889e-13
 1.10811889e-13
 1.10811889e-13
 1.10811889e-13
 1.10811889e-13
 1.10811889e-13
 1.10811889e-13
 1.10811889e-13
 1.10811889e-13
 1.10811889e-13
 1.10811889e-13
 1.10811889e-13
 1.10811889e-13
 1.10811889e-13
 1.10811889e-13
 1.10811889e-13
 1.10811889e-13
 1.10811889e-13
 1.10811889e-13
 1.10811889e-13
 1.10811889e-13
 1.10811889e-13
 1.10811889e-13
 1.10811889e-13
 1.10811889e-13
 1.10811889e-13
 1.10811889e-13
 1.10811889e-13
 1.10811889e-13
 1.10811889e-13
 1.10811889e-13
 1.10811889e-13
 9.23043612e-16
 9.23043612e-16
 9.23043612e-16
 9.23043612e-16
 9.23043612e-16
 9.23043612e-16
 9.23043612e-16
 9.23043612e-16
 9.23043612e-16
 9.23043612e-16
 9.23043612e-16
 9.23043612e-16
 6.57603613e-16
 6.57603613e-16
 6.57603613e-16
 6.57603613e-16
 6.57603613e-16
 6.57603613e-16
 6.57603613e-16
 6.57603613e-16
 6.39466907e-15
 6.39466907e-15
 6.39466907e-15
 6.39466907e-15
 6.39466907e-15
 6.39466907e-15
 6.39466907e-15
 6.39466907e-15
 6.39466907e-15
 6.39466907e-15
 6.39466907e-15
 6.39466907e-15
 6.39466907e-15
 6.39466907e-15
 5.06156742e-15
 5.06156742e-15
 5.06156742e-15
 5.06156742e-15
 5.06156742e-15
 5.06156742e-15
 5.06156742e-15
 5.06156742e-15
 5.06156742e-15
 5.06156742e-15
 5.47651797e-16
 5.47651797e-16
 5.47651797e-16
 5.47651797e-16
 3.71374465e-16
 4.95994277e-17
 4.95994277e-17
 4.95994277e-17
 4.95994277e-17
 2.00007047e-15
 2.00007047e-15
 1.09163040e-16
 1.09163040e-16
 1.64496548e-15
 1.64496548e-15
)
)
1
(
101
(
 2.65824742e-14
 2.65824742e-14
 2.65824742e-14
 2.65824742e-14
 2.65824742e-14
 2.65824742e-14
 1.10811889e-13
 1.10811889e-13
 1.10811889e-13
 1.10811889e-13
 1.10811889e-13
 1.10811889e-13
 1.10811889e-13
 1.10811889e-13
 1.10811889e-13
 1.10811889e-13
 1.10811889e-13
 1.10811889e-13
 1.10811889e-13
 1.10811889e-13
 1.10811889e-13
 1.10811889e-13
 1.10811889e-13
 1.10811889e-13
 1.10811889e-13
 1.10811889e-13
 1.10811889e-13
 1.10811889e-13
 1.10811889e-13
 1.10811889e-13
 1.10811889e-13
 1.10811889e-13
 1.10811889e-13
 1.10811889e-13
 1.10811889e-13
 1.10811889e-13
 1.10811889e-13
 1.10811889e-13
 1.10811889e-13
 1.10811889e-13
 1.10811889e-13
 1.10811889e-13
 9.23043612e-16
 9.23043612e-16
 9.23043612e-16
 9.23043612e-16
 9.23043612e-16
 9.23043612e-16
 9.23043612e-16
 9.23043612e-16
 9.23043612e-16
 9.23043612e-16
 9.23043612e-16
 9.23043612e-16
 9.23043612e-16
 6.57603613e-16
 6.57603613e-16
 6.57603613e-16
 6.57603613e-16
 6.57603613e-16
 6.57603613e-16
 6.57603613e-16
 6.57603613e-16
 6.39466907e-15
 6.39466907e-15
 6.39466907e-15
 6.39466907e-15
 6.39466907e-15
 6.39466907e-15
 6.39466907e-15
 6.39466907e-15
 6.39466907e-15
 6.39466907e-15
 6.39466907e-15
 6.39466907e-15
 6.39466907e-15
 6.39466907e-15
 5.06156742e-15
 5.06156742e-15
 5.06156742e-15
 5.06156742e-15
 5.06156742e-15
 5.06156742e-15
 5.06156742e-15
 5.06156742e-15
 5.06156742e-15
 5.06156742e-15
 5.47651797e-16
 5.47651797e-16
 5.47651797e-16
 5.47651797e-16
 3.71374465e-16
 3.71374465e-16
 2.03585401e-16
 2.03585401e-16
 2.03585401e-16
 2.00007047e-15
 2.00007047e-15
 1.09163040e-16
 1.09163040e-16
 1.64496548e-15
)
)
1
(
101
(
 3.82988142e-14
 3.82988142e-14
 3.82988142e-14
 1.10811889e-13
 1.10811889e-13
 1.10811889e-13
 1.10811889e-13
 1.10811889e-13
 1.10811889e-13
 1.10811889e-13
 1.10811889e-13
 1.10811889e-13
 1.10811889e-13
 1.10811889e-13
 1.10811889e-13
 1.10811889e-13
 1.10811889e-13
 1.10811889e-13
 1.10811889e-13
 1.10811889e-13
 1.10811889e-13
 1.10811889e-13
 1.10811889e-13
 1.10811889e-13
 1.10811889e-13
 1.10811889e-13
 1.10811889e-13
 1.10811889e-13
 1.10811889e-13
 1.10811889e-13
 1.10811889e-13
 1.10811889e-13
 1.10811889e-13
 1.10811889e-13
 1.10811889e-13
 1.10811889e-13
 1.10811889e-13
 1.10811889e-13
 1.10811889e-13
 1.10811889e-13
 1.10811889e-13
 3.92923851e-16
 9.23043612e-16
 9.23043612e-16
 9.23043612e-16
 9.23043612e-16
 9.23043612e-16
 9.23043612e-16
 9.23043612e-16
 9.23043612e-16
 9.23043612e-16
 9.23043612e-16
 9.23043612e-16
 9.23043612e-16
 9.23043612e-16
 9.23043612e-16
 6.57603613e-16
 6.57603613e-16
 6.57603613e-16
 6.57603613e-16
 6.57603613e-16
 6.57603613e-16
 6.57603613e-16
 6.57603613e-16
 6.57603613e-16
 6.39466907e-15
 6.39466907e-15
 6.39466907e-15
 6.39466907e-15
 6.39466907e-15
 6.39466907e-15
 6.39466907e-15
 6.39466907e-15
 6.39466907e-15
 6.39466907e-15
 6.39466907e-15
 6.39466907e-15
 6.39466907e-15
 5.06156742e-15
 5.06156742e-15
 5.06156742e-15
 5.06156742e-15
 5.06156742e-15
 5.06156742e-15
 5.06156742e-15
 5.06156742e-15
 5.06156742e-15
 5.06156742e-15
 5.47651797e-16
 5.47651797e-16
 5.47651797e-16
 5.47651797e-16
 3.71374465e-16
 3.71374465e-16
 2.03585401e-16
 2.03585401e-16
 2.03585401e-16
 2.03585401e-16
 2.00007047e-15
 1.09163040e-16
 1.09163040e-16
)
)
1
(
101
(
 2.67025639e-14
 2.67025639e-14
 1.10811889e-13
 1.10811889e-13
 1.10811889e-13
 1.10811889e-13
 1.10811889e-13
 1.10811889e-13
 1.10811889e-13
 1.10811889e-13
 1.10811889e-13
 1.10811889e-13
 1.10811889e-13
 1.10811889e-13
 1.10811889e-13
 1.10811889e-13
 1.10811889e-13
 1.10811889e-13
 1.10811889e-13
 1.10811889e-13
 1.10811889e-13
 1.10811889e-13
 1.10811889e-13
 1.10811889e-13
 1.10811889e-13
 1.10811889e-13
 1.10811889e-13
 1.10811889e-13
 1.10811889e-13
 1.10811889e-13
 1.10811889e-13
 1.10811889e-13
 1.10811889e-13
 1.10811889e-13
 1.10811889e-13
 1.10811889e-13
 1.10811889e-13
 1.10811889e-13
 1.10811889e-13
 1.10811889e-13
 1.10811889e-13
 3.92923851e-16
 3.92923851e-16
 9.23043612e-16
 9.23043612e-16
 9.23043612e-16
 9.23043612e-16
 9.23043612e-16
 9.23043612e-16
 9.23043612e-16
 9.23043612e-16
 9.23043612e-16
 9.23043612e-16
 9.23043612e-16
 9.23043612e-16
 9.23043612e-16
 9.23043612e-16
 6.57603613e-16
 6.57603613e-16
 6.57603613e-16
 6.57603613e-16
 6.57603613e-16
 6.57603613e-16
 6.57603613e-16
 6.57603613e-16
 6.57603613e-16
 6.39466907e-15
 6.39466907e-15
 6.39466907e-15
 6.39466907e-15
 6.39466907e-15
 6.39466907e-15
 6.39466907e-15
 6.39466907e-15
 6.39466907e-15
 6.39466907e-15
 6.39466907e-15
 6.39466907e-15
 6.39466907e-15
 6.39466907e-15
 5.06156742e-15
 5.06156742e-15
 5.06156742e-15
 5.06156742e-15
 5.06156742e-15
 5.06156742e-15
 5.06156742e-15
 5.06156742e-15
 2.81805046e-16
 5.47651797e-16
 5.47651797e-16
 5.47651797e-16
 5.89163549e-18
 5.89163549e-18
 5.89163549e-18
 2.03585401e-16
 2.03585401e-16
 2.03585401e-16
 2.03585401e-16
 2.03585401e-16
 1.09163040e-16
)
)
1
(
101
(
 5.46590881e-17
 1.10811889e-13
 1.10811889e-13
 1.10811889e-13
 1.10811889e-13
 1.10811889e-13
 1.10811889e-13
 1.10811889e-13
 1.10811889e-13
 1.10811889e-13
 1.10811889e-13
 1.10811889e-13
 1.10811889e-13
 1.10811889e-13
 1.10811889e-13
 1.10811889e-13
 1.10811889e-13
 1.10811889e-13
 1.10811889e-13
 1.10811889e-13
 1.10811889e-13
 1.10811889e-13
 1.10811889e-13
 1.10811889e-13
 1.10811889e-13
 1.10811889e-13
 1.10811889e-13
 1.10811889e-13
 1.10811889e-13
 1.10811889e-13
 1.10811889e-13
 1.10811889e-13
 1.10811889e-13
 1.10811889e-13
 1.10811889e-13
 1.10811889e-13
 1.10811889e-13
 1.10811889e-13
 1.10811889e-13
 1.10811889e-13
 3.92923851e-16
 3.92923851e-16
 3.92923851e-16
 3.92923851e-16
 9.23043612e-16
 9.23043612e-16
 9.23043612e-16
 9.23043612e-16
 9.23043612e-16
 9.23043612e-16
 9.23043612e-16
 9.23043612e-16
 9.23043612e-16
 9.23043612e-16
 9.23043612e-16
 9.23043612e-16
 9.23043612e-16
 9.23043612e-16
 6.57603613e-16
 6.57603613e-16
 6.57603613e-16
 6.57603613e-16
 6.57603613e-16
 6.57603613e-16
 6.57603613e-16
 6.57603613e-16
 6.57603613e-16
 6.57603613e-16
 6.39466907e-15
 6.39466907e-15
 6.39466907e-15
 6.39466907e-15
 6.39466907e-15
 6.39466907e-15
 6.39466907e-15
 6.39466907e-15
 6.39466907e-15
 6.39466907e-15
 6.39466907e-15
 6.39466907e-15
 6.39466907e-15
 5.27741481e-16
 5.06156742e-15
 5.06156742e-15
 5.06156742e-15
 5.06156742e-15
 5.06156742e-15
 5.06156742e-15
 5.06156742e-15
 2.81805046e-16
 2.81805046e-16
 4.10456460e-17
 4.10456460e-17
 5.89163549e-18
 5.89163549e-18
 5.89163549e-18
 5.89163549e-18
 2.03585401e-16
 2.03585401e-16
 2.03585401e-16
 2.03585401e-16
)
)
1
(
101
(
 5.46590881e-17
 7.76622992e-14
 7.76622992e-14
 7.76622992e-14
 7.76622992e-14
 7.76622992e-14
 7.76622992e-14
 7.76622992e-14
 7.76622992e-14
 7.76622992e-14
 7.76622992e-14
 7.76622992e-14
 7.76622992e-14
 7.76622992e-14
 7.76622992e-14
 7.76622992e-14
 7.76622992e-14
 7.76622992e-14
 7.76622992e-14
 7.76622992e-14
 7.76622992e-14
 7.76622992e-14
 7.76622992e-14
 7.76622992e-14
 7.76622992e-14
 7.76622992e-14
 7.76622992e-14
 7.76622992e-14
 7.76622992e-14
 7.76622992e-14
 7.76622992e-14
 7.76622992e-14
 7.76622992e-14
 7.76622992e-14
 7.76622992e-14
 7.76622992e-14
 7.76622992e-14
 7.76622992e-14
 7.76622992e-14
 7.76622992e-14
 3.92923851e-16
 3.92923851e-16
 3.92923851e-16
 3.92923851e-16
 3.92923851e-16
 9.23043612e-16
 9.23043612e-16
 9.23043612e-16
 9.23043612e-16
 9.23043612e-16
 9.23043612e-16
 9.23043612e-16
 9.23043612e-16
 9.23043612e-16
 9.23043612e-16
 9.23043612e-16
 9.23043612e-16
 9.23043612e-16
 9.23043612e-16
 6.57603613e-16
 6.57603613e-16
 6.57603613e-16
 6.57603613e-16
 6.57603613e-16
 6.57603613e-16
 6.57603613e-16
 6.57603613e-16
 6.57603613e-16
 6.57603613e-16
 6.39466907e-15
 6.39466907e-15
 6.39466907e-15
 6.39466907e-15
 6.39466907e-15
 6.39466907e-15
 6.39466907e-15
 6.39466907e-15
 6.39466907e-15
 6.39466907e-15
 6.39466907e-15
 6.39466907e-15
 6.39466907e-15
 5.27741481e-16
 5.27741481e-16
 5.06156742e-15
 5.06156742e-15
 5.06156742e-15
 5.06156742e-15
 5.06156742e-15
 2.81805046e-16
 2.81805046e-16
 2.81805046e-16
 4.10456460e-17
 4.10456460e-17
 5.89163549e-18
 5.89163549e-18
 5.89163549e-18
 5.89163549e-18
 5.89163549e-18
 2.03585401e-16
 2.03585401e-16
)
)
1
(
101
(
 1.21632012e-13
 1.21632012e-13
 1.21632012e-13
 1.21632012e-13
 1.21632012e-13
 1.21632012e-13
 1.21632012e-13
 1.21632012e-13
 1.21632012e-13
 1.21632012e-13
 1.21632012e-13
 1.21632012e-13
 1.21632012e-13
 1.21632012e-13
 1.21632012e-13
 1.21632012e-13
 1.21632012e-13
 1.21632012e-13
 1.21632012e-13
 1.21632012e-13
 1.21632012e-13
 1.21632012e-13
 1.21632012e-13
 1.21632012e-13
 1.21632012e-13
 1.21632012e-13
 1.21632012e-13
 1.21632012e-13
 1.21632012e-13
 1.21632012e-13
 1.21632012e-13
 1.21632012e-13
 1.21632012e-13
 1.21632012e-13
 1.21632012e-13
 1.21632012e-13
 1.21632012e-13
 1.21632012e-13
 1.21632012e-13
 1.21632012e-13
 3.92923851e-16
 3.92923851e-16
 3.92923851e-16
 3.92923851e-16
 3.92923851e-16
 3.92923851e-16
 9.23043612e-16
 9.23043612e-16
 9.23043612e-16
 9.23043612e-16
 9.23043612e-16
 9.23043612e-16
 9.23043612e-16
 9.23043612e-16
 9.23043612e-16
 9.23043612e-16
 9.23043612e-16
 9.23043612e-16
 9.23043612e-16
 9.23043612e-16
 9.23043612e-16
 6.57603613e-16
 6.57603613e-16
 6.57603613e-16
 6.57603613e-16
 6.57603613e-16
 6.57603613e-16
 6.57603613e-16
 6.57603613e-16
 6.57603613e-16
 6.57603613e-16
 6.39466907e-15
 6.39466907e-15
 6.39466907e-15
 6.39466907e-15
 6.39466907e-15
 6.39466907e-15
 6.39466907e-15
 6.39466907e-15
 6.39466907e-15
 6.39466907e-15
 6.39466907e-15
 6.39466907e-15
 5.27741481e-16
 5.27741481e-16
 5.27741481e-16
 5.06156742e-15
 5.06156742e-15
 5.06156742e-15
 5.06156742e-15
 2.81805046e-16
 2.81805046e-16
 2.81805046e-16
 4.10456460e-17
 4.10456460e-17
 5.89163549e-18
 5.89163549e-18
 5.89163549e-18
 5.89163549e-18
 5.89163549e-18
 5.89163549e-18
)
)
1
(
101
(
 1.75863350e-13
 1.75863350e-13
 1.75863350e-13
 1.75863350e-13
 1.75863350e-13
 1.75863350e-13
 1.75863350e-13
 1.75863350e-13
 1.75863350e-13
 1.75863350e-13
 1.75863350e-13
 1.75863350e-13
 1.75863350e-13
 1.75863350e-13
 1.75863350e-13
 1.75863350e-13
 1.75863350e-13
 1.75863350e-13
 1.75863350e-13
 1.75863350e-13
 1.75863350e-13
 1.75863350e-13
 1.75863350e-13
 1.75863350e-13
 1.75863350e-13
 1.75863350e-13
 1.75863350e-13
 1.75863350e-13
 1.75863350e-13
 1.75863350e-13
 1.75863350e-13
 1.75863350e-13
 1.75863350e-13
 1.75863350e-13
 1.75863350e-13
 1.75863350e-13
 1.75863350e-13
 1.75863350e-13
 1.75863350e-13
 3.92923851e-16
 3.92923851e-16
 3.92923851e-16
 3.92923851e-16
 3.92923851e-16
 3.92923851e-16
 3.92923851e-16
 3.92923851e-16
 3.92923851e-16
 9.23043612e-16
 9.23043612e-16
 9.23043612e-16
 9.23043612e-16
 9.23043612e-16
 9.23043612e-16
 9.23043612e-16
 9.23043612e-16
 9.23043612e-16
 9.23043612e-16
 9.23043612e-16
 9.23043612e-16
 9.23043612e-16
 9.23043612e-16
 6.57603613e-16
 6.57603613e-16
 6.57603613e-16
 6.57603613e-16
 6.57603613e-16
 6.57603613e-16
 6.57603613e-16
 6.57603613e-16
 6.57603613e-16
 6.57603613e-16
 6.39466907e-15
 6.39466907e-15
 6.39466907e-15
 6.39466907e-15
 6.39466907e-15
 6.39466907e-15
 6.39466907e-15
 6.39466907e-15
 6.39466907e-15
 6.39466907e-15
 6.39466907e-15
 6.39466907e-15
 5.27741481e-16
 5.27741481e-16
 5.27741481e-16
 5.27741481e-16
 2.21456166e-16
 2.21456166e-16
 2.21456166e-16
 2.81805046e-16
 2.81805046e-16
 2.81805046e-16
 4.10456460e-17
 4.10456460e-17
 5.89163549e-18
 5.89163549e-18
 5.89163549e-18