/*--------------------------------*- C++ -*----------------------------------*\
| =========                 |                                                 |
| \\      /  F ield        | OpenFOAM: The Open Source CFD Toolbox           |
|  \\    /   O peration    | Version:  7                                     |
|   \\  /    A nd          | Web:      http://www.OpenFOAM.com               |
|    \\/     M anipulation |                                                 |
\*---------------------------------------------------------------------------*/

FoamFile
{
    version     2.0;
    format      ascii;
    class       dictionary;
    object      Y_NCO_table;
}

Y_NCO_table
2
(
101
(
1
(
101
(
 1.17444548e-15
 1.17444548e-15
 1.17444548e-15
 1.17444548e-15
 1.17444548e-15
 1.17444548e-15
 1.17444548e-15
 1.17444548e-15
 1.17444548e-15
 1.17444548e-15
 1.17444548e-15
 1.17444548e-15
 1.17444548e-15
 1.17444548e-15
 1.17444548e-15
 1.17444548e-15
 1.17444548e-15
 1.17444548e-15
 1.17444548e-15
 1.17444548e-15
 1.17444548e-15
 1.17444548e-15
 1.17444548e-15
 1.17444548e-15
 1.17444548e-15
 1.17444548e-15
 1.17444548e-15
 1.17444548e-15
 1.17444548e-15
 1.17444548e-15
 1.17444548e-15
 1.17444548e-15
 1.17444548e-15
 1.17444548e-15
 1.17444548e-15
 1.17444548e-15
 1.17444548e-15
 1.17444548e-15
 1.17444548e-15
 1.17444548e-15
 1.17444548e-15
 1.17444548e-15
 1.17444548e-15
 1.17444548e-15
 1.17444548e-15
 2.02355991e-14
 2.02355991e-14
 2.36644816e-13
 2.36644816e-13
 2.36644816e-13
 2.36644816e-13
 2.36644816e-13
 2.36644816e-13
 2.36644816e-13
 2.36644816e-13
 2.36644816e-13
 2.36644816e-13
 2.36644816e-13
 2.36644816e-13
 2.36644816e-13
 2.36644816e-13
 2.36644816e-13
 2.36644816e-13
 1.93920182e-13
 1.93920182e-13
 1.93920182e-13
 1.93920182e-13
 1.93920182e-13
 1.93920182e-13
 1.93920182e-13
 1.93920182e-13
 1.93920182e-13
 1.93920182e-13
 1.93920182e-13
 1.93920182e-13
 4.11600379e-15
 4.11600379e-15
 4.11600379e-15
 4.11600379e-15
 4.11600379e-15
 4.11600379e-15
 4.11600379e-15
 6.67724778e-15
 6.67724778e-15
 6.67724778e-15
 6.67724778e-15
 6.67724778e-15
 6.67724778e-15
 5.44854770e-15
 5.44854770e-15
 5.44854770e-15
 5.44854770e-15
 5.44854770e-15
 5.44854770e-15
 5.44854770e-15
 3.42538581e-15
 3.42538581e-15
 3.42538581e-15
 3.42538581e-15
 3.42538581e-15
 2.19136172e-16
)
)
1
(
101
(
 1.03781468e-13
 1.03781468e-13
 1.03781468e-13
 1.03781468e-13
 1.03781468e-13
 1.03781468e-13
 1.03781468e-13
 1.03781468e-13
 1.03781468e-13
 1.03781468e-13
 1.03781468e-13
 1.03781468e-13
 1.03781468e-13
 1.03781468e-13
 1.03781468e-13
 1.03781468e-13
 1.03781468e-13
 1.03781468e-13
 1.03781468e-13
 1.03781468e-13
 1.03781468e-13
 1.03781468e-13
 1.03781468e-13
 1.03781468e-13
 1.03781468e-13
 1.03781468e-13
 1.03781468e-13
 1.03781468e-13
 1.03781468e-13
 1.03781468e-13
 1.03781468e-13
 1.03781468e-13
 1.03781468e-13
 1.03781468e-13
 1.03781468e-13
 1.03781468e-13
 1.03781468e-13
 1.03781468e-13
 1.03781468e-13
 1.03781468e-13
 1.03781468e-13
 1.03781468e-13
 1.03781468e-13
 1.03781468e-13
 1.03781468e-13
 2.02355991e-14
 2.02355991e-14
 2.02355991e-14
 2.36644816e-13
 2.36644816e-13
 2.36644816e-13
 2.36644816e-13
 2.36644816e-13
 2.36644816e-13
 2.36644816e-13
 2.36644816e-13
 2.36644816e-13
 2.36644816e-13
 2.36644816e-13
 2.36644816e-13
 2.36644816e-13
 2.36644816e-13
 2.36644816e-13
 2.36644816e-13
 2.36644816e-13
 1.93920182e-13
 1.93920182e-13
 1.93920182e-13
 1.93920182e-13
 1.93920182e-13
 1.93920182e-13
 1.93920182e-13
 1.93920182e-13
 1.93920182e-13
 1.93920182e-13
 1.93920182e-13
 1.93920182e-13
 4.11600379e-15
 4.11600379e-15
 4.11600379e-15
 4.11600379e-15
 4.11600379e-15
 4.11600379e-15
 6.67724778e-15
 6.67724778e-15
 6.67724778e-15
 6.67724778e-15
 6.67724778e-15
 6.67724778e-15
 6.67724778e-15
 5.44854770e-15
 5.44854770e-15
 5.44854770e-15
 5.44854770e-15
 5.44854770e-15
 5.44854770e-15
 3.28738081e-15
 3.42538581e-15
 3.42538581e-15
 3.42538581e-15
 2.25209122e-15
)
)
1
(
101
(
 3.39332195e-13
 3.39332195e-13
 3.39332195e-13
 3.39332195e-13
 3.39332195e-13
 3.39332195e-13
 3.39332195e-13
 3.39332195e-13
 3.39332195e-13
 3.39332195e-13
 3.39332195e-13
 3.39332195e-13
 3.39332195e-13
 3.39332195e-13
 3.39332195e-13
 3.39332195e-13
 3.39332195e-13
 3.39332195e-13
 3.39332195e-13
 3.39332195e-13
 3.39332195e-13
 3.39332195e-13
 3.39332195e-13
 3.39332195e-13
 3.39332195e-13
 3.39332195e-13
 3.39332195e-13
 3.39332195e-13
 3.39332195e-13
 3.39332195e-13
 3.39332195e-13
 3.39332195e-13
 3.39332195e-13
 3.39332195e-13
 3.39332195e-13
 3.39332195e-13
 3.39332195e-13
 3.39332195e-13
 3.39332195e-13
 3.39332195e-13
 3.39332195e-13
 3.39332195e-13
 3.39332195e-13
 3.39332195e-13
 2.02355991e-14
 2.02355991e-14
 2.02355991e-14
 2.02355991e-14
 2.02355991e-14
 2.02355991e-14
 2.36644816e-13
 2.36644816e-13
 2.36644816e-13
 2.36644816e-13
 2.36644816e-13
 2.36644816e-13
 2.36644816e-13
 2.36644816e-13
 2.36644816e-13
 2.36644816e-13
 2.36644816e-13
 2.36644816e-13
 2.36644816e-13
 2.36644816e-13
 2.36644816e-13
 2.36644816e-13
 1.93920182e-13
 1.93920182e-13
 1.93920182e-13
 1.93920182e-13
 1.93920182e-13
 1.93920182e-13
 1.93920182e-13
 1.93920182e-13
 1.93920182e-13
 1.93920182e-13
 1.93920182e-13
 1.93920182e-13
 4.11600379e-15
 4.11600379e-15
 4.11600379e-15
 4.11600379e-15
 4.11600379e-15
 4.11600379e-15
 4.11600379e-15
 6.67724778e-15
 6.67724778e-15
 6.67724778e-15
 6.67724778e-15
 6.67724778e-15
 6.67724778e-15
 5.44854770e-15
 5.44854770e-15
 5.44854770e-15
 5.44854770e-15
 5.44854770e-15
 5.44854770e-15
 3.28738081e-15
 3.28738081e-15
 1.08610636e-15
 1.08610636e-15
)
)
1
(
101
(
 5.03027385e-13
 5.03027385e-13
 5.03027385e-13
 5.03027385e-13
 5.03027385e-13
 5.03027385e-13
 5.03027385e-13
 5.03027385e-13
 5.03027385e-13
 5.03027385e-13
 5.03027385e-13
 5.03027385e-13
 5.03027385e-13
 5.03027385e-13
 5.03027385e-13
 5.03027385e-13
 5.03027385e-13
 5.03027385e-13
 5.03027385e-13
 5.03027385e-13
 5.03027385e-13
 5.03027385e-13
 5.03027385e-13
 5.03027385e-13
 5.03027385e-13
 5.03027385e-13
 5.03027385e-13
 5.03027385e-13
 5.03027385e-13
 5.03027385e-13
 5.03027385e-13
 5.03027385e-13
 5.03027385e-13
 5.03027385e-13
 5.03027385e-13
 5.03027385e-13
 5.03027385e-13
 5.03027385e-13
 5.03027385e-13
 5.03027385e-13
 5.03027385e-13
 5.03027385e-13
 5.03027385e-13
 5.03027385e-13
 2.59861957e-14
 2.02355991e-14
 2.02355991e-14
 2.02355991e-14
 2.02355991e-14
 2.02355991e-14
 2.02355991e-14
 2.36644816e-13
 2.36644816e-13
 2.36644816e-13
 2.36644816e-13
 2.36644816e-13
 2.36644816e-13
 2.36644816e-13
 2.36644816e-13
 2.36644816e-13
 2.36644816e-13
 2.36644816e-13
 2.36644816e-13
 2.36644816e-13
 2.36644816e-13
 2.36644816e-13
 2.36644816e-13
 1.93920182e-13
 1.93920182e-13
 1.93920182e-13
 1.93920182e-13
 1.93920182e-13
 1.93920182e-13
 1.93920182e-13
 1.93920182e-13
 1.93920182e-13
 1.93920182e-13
 1.93920182e-13
 1.93920182e-13
 1.01760193e-14
 4.11600379e-15
 4.11600379e-15
 4.11600379e-15
 4.11600379e-15
 4.11600379e-15
 4.11600379e-15
 6.67724778e-15
 6.67724778e-15
 6.67724778e-15
 6.67724778e-15
 6.67724778e-15
 6.67724778e-15
 6.67724778e-15
 5.44854770e-15
 5.44854770e-15
 5.44854770e-15
 5.44854770e-15
 5.44854770e-15
 3.28738081e-15
 5.81793924e-16
 5.81793924e-16
)
)
1
(
101
(
 9.73869999e-13
 9.73869999e-13
 9.73869999e-13
 9.73869999e-13
 9.73869999e-13
 9.73869999e-13
 9.73869999e-13
 9.73869999e-13
 9.73869999e-13
 9.73869999e-13
 9.73869999e-13
 9.73869999e-13
 9.73869999e-13
 9.73869999e-13
 9.73869999e-13
 9.73869999e-13
 9.73869999e-13
 9.73869999e-13
 9.73869999e-13
 9.73869999e-13
 9.73869999e-13
 9.73869999e-13
 9.73869999e-13
 9.73869999e-13
 9.73869999e-13
 9.73869999e-13
 9.73869999e-13
 9.73869999e-13
 9.73869999e-13
 9.73869999e-13
 9.73869999e-13
 9.73869999e-13
 9.73869999e-13
 9.73869999e-13
 9.73869999e-13
 9.73869999e-13
 9.73869999e-13
 9.73869999e-13
 9.73869999e-13
 9.73869999e-13
 9.73869999e-13
 9.73869999e-13
 9.73869999e-13
 9.73869999e-13
 2.59861957e-14
 2.59861957e-14
 2.59861957e-14
 2.02355991e-14
 2.02355991e-14
 2.02355991e-14
 2.02355991e-14
 2.02355991e-14
 2.02355991e-14
 2.36644816e-13
 2.36644816e-13
 2.36644816e-13
 2.36644816e-13
 2.36644816e-13
 2.36644816e-13
 2.36644816e-13
 2.36644816e-13
 2.36644816e-13
 2.36644816e-13
 2.36644816e-13
 2.36644816e-13
 2.36644816e-13
 2.36644816e-13
 2.36644816e-13
 1.93920182e-13
 1.93920182e-13
 1.93920182e-13
 1.93920182e-13
 1.93920182e-13
 1.93920182e-13
 1.93920182e-13
 1.93920182e-13
 1.93920182e-13
 1.93920182e-13
 1.93920182e-13
 1.93920182e-13
 1.01760193e-14
 4.11600379e-15
 4.11600379e-15
 4.11600379e-15
 4.11600379e-15
 4.11600379e-15
 4.11600379e-15
 4.11600379e-15
 6.67724778e-15
 6.67724778e-15
 6.67724778e-15
 6.67724778e-15
 6.67724778e-15
 6.67724778e-15
 9.44089003e-15
 5.44854770e-15
 5.44854770e-15
 5.44854770e-15
 7.46107636e-16
 7.46107636e-16
 5.81793924e-16
)
)
1
(
101
(
 1.29507161e-12
 1.29507161e-12
 1.29507161e-12
 1.29507161e-12
 1.29507161e-12
 1.29507161e-12
 1.29507161e-12
 1.29507161e-12
 1.29507161e-12
 1.29507161e-12
 1.29507161e-12
 1.29507161e-12
 1.29507161e-12
 1.29507161e-12
 1.29507161e-12
 1.29507161e-12
 1.29507161e-12
 1.29507161e-12
 1.29507161e-12
 1.29507161e-12
 1.29507161e-12
 1.29507161e-12
 1.29507161e-12
 1.29507161e-12
 1.29507161e-12
 1.29507161e-12
 1.29507161e-12
 1.29507161e-12
 1.29507161e-12
 1.29507161e-12
 1.29507161e-12
 1.29507161e-12
 1.29507161e-12
 1.29507161e-12
 1.29507161e-12
 1.29507161e-12
 1.29507161e-12
 1.29507161e-12
 1.29507161e-12
 1.29507161e-12
 1.29507161e-12
 1.29507161e-12
 2.07466467e-11
 2.59861957e-14
 2.59861957e-14
 2.59861957e-14
 2.59861957e-14
 2.59861957e-14
 2.02355991e-14
 2.02355991e-14
 2.02355991e-14
 2.02355991e-14
 2.02355991e-14
 2.02355991e-14
 2.36644816e-13
 2.36644816e-13
 2.36644816e-13
 2.36644816e-13
 2.36644816e-13
 2.36644816e-13
 2.36644816e-13
 2.36644816e-13
 2.36644816e-13
 2.36644816e-13
 2.36644816e-13
 2.36644816e-13
 2.36644816e-13
 2.36644816e-13
 2.36644816e-13
 2.36644816e-13
 1.93920182e-13
 1.93920182e-13
 1.93920182e-13
 1.93920182e-13
 1.93920182e-13
 1.93920182e-13
 1.93920182e-13
 1.93920182e-13
 1.93920182e-13
 1.93920182e-13
 1.93920182e-13
 1.01760193e-14
 1.01760193e-14
 4.11600379e-15
 4.11600379e-15
 4.11600379e-15
 4.11600379e-15
 4.11600379e-15
 4.11600379e-15
 6.67724778e-15
 6.67724778e-15
 6.67724778e-15
 6.67724778e-15
 6.67724778e-15
 6.67724778e-15
 9.44089003e-15
 9.44089003e-15
 1.94186119e-15
 1.94186119e-15
 7.46107636e-16
 7.46107636e-16
)
)
1
(
101
(
 1.82221266e-12
 1.82221266e-12
 1.82221266e-12
 1.82221266e-12
 1.82221266e-12
 1.82221266e-12
 1.82221266e-12
 1.82221266e-12
 1.82221266e-12
 1.82221266e-12
 1.82221266e-12
 1.82221266e-12
 1.82221266e-12
 1.82221266e-12
 1.82221266e-12
 1.82221266e-12
 1.82221266e-12
 1.82221266e-12
 1.82221266e-12
 1.82221266e-12
 1.82221266e-12
 1.82221266e-12
 1.82221266e-12
 1.82221266e-12
 1.82221266e-12
 1.82221266e-12
 1.82221266e-12
 1.82221266e-12
 1.82221266e-12
 1.82221266e-12
 1.82221266e-12
 1.82221266e-12
 1.82221266e-12
 2.07466467e-11
 2.07466467e-11
 2.07466467e-11
 2.07466467e-11
 2.07466467e-11
 2.07466467e-11
 2.07466467e-11
 2.07466467e-11
 2.07466467e-11
 2.07466467e-11
 2.59861957e-14
 2.59861957e-14
 2.59861957e-14
 2.59861957e-14
 2.59861957e-14
 2.59861957e-14
 2.02355991e-14
 2.02355991e-14
 2.02355991e-14
 2.02355991e-14
 2.02355991e-14
 2.02355991e-14
 2.02355991e-14
 2.36644816e-13
 2.36644816e-13
 2.36644816e-13
 2.36644816e-13
 2.36644816e-13
 2.36644816e-13
 2.36644816e-13
 2.36644816e-13
 2.36644816e-13
 2.36644816e-13
 2.36644816e-13
 2.36644816e-13
 2.36644816e-13
 2.36644816e-13
 2.36644816e-13
 1.93920182e-13
 1.93920182e-13
 1.93920182e-13
 1.93920182e-13
 1.93920182e-13
 1.93920182e-13
 1.93920182e-13
 1.93920182e-13
 1.93920182e-13
 1.93920182e-13
 1.93920182e-13
 1.01760193e-14
 1.01760193e-14
 4.11600379e-15
 4.11600379e-15
 4.11600379e-15
 4.11600379e-15
 4.11600379e-15
 4.11600379e-15
 4.11600379e-15
 6.67724778e-15
 6.67724778e-15
 6.67724778e-15
 6.67724778e-15
 6.67724778e-15
 9.44089003e-15
 9.44089003e-15
 1.94186119e-15
 1.94186119e-15
 7.46107636e-16
)
)
1
(
101
(
 2.80837298e-12
 2.80837298e-12
 2.80837298e-12
 2.80837298e-12
 2.80837298e-12
 2.80837298e-12
 2.80837298e-12
 2.80837298e-12
 2.80837298e-12
 2.80837298e-12
 2.80837298e-12
 2.80837298e-12
 2.80837298e-12
 2.80837298e-12
 2.80837298e-12
 2.80837298e-12
 2.80837298e-12
 2.80837298e-12
 2.80837298e-12
 2.80837298e-12
 2.80837298e-12
 2.80837298e-12
 2.80837298e-12
 2.80837298e-12
 2.80837298e-12
 2.80837298e-12
 2.07466467e-11
 2.07466467e-11
 2.07466467e-11
 2.07466467e-11
 2.07466467e-11
 2.07466467e-11
 2.07466467e-11
 2.07466467e-11
 2.07466467e-11
 2.07466467e-11
 2.07466467e-11
 2.07466467e-11
 2.07466467e-11
 2.07466467e-11
 2.07466467e-11
 2.07466467e-11
 2.07466467e-11
 2.59861957e-14
 2.59861957e-14
 2.59861957e-14
 2.59861957e-14
 2.59861957e-14
 2.59861957e-14
 2.59861957e-14
 2.02355991e-14
 2.02355991e-14
 2.02355991e-14
 2.02355991e-14
 2.02355991e-14
 2.02355991e-14
 2.02355991e-14
 2.36644816e-13
 2.36644816e-13
 2.36644816e-13
 2.36644816e-13
 2.36644816e-13
 2.36644816e-13
 2.36644816e-13
 2.36644816e-13
 2.36644816e-13
 2.36644816e-13
 2.36644816e-13
 2.36644816e-13
 2.36644816e-13
 2.36644816e-13
 2.36644816e-13
 1.93920182e-13
 1.93920182e-13
 1.93920182e-13
 1.93920182e-13
 1.93920182e-13
 1.93920182e-13
 1.93920182e-13
 1.93920182e-13
 1.93920182e-13
 1.93920182e-13
 1.93920182e-13
 1.01760193e-14
 1.01760193e-14
 1.01760193e-14
 4.11600379e-15
 4.11600379e-15
 4.11600379e-15
 4.11600379e-15
 4.11600379e-15
 4.11600379e-15
 1.07900246e-14
 6.67724778e-15
 6.67724778e-15
 6.67724778e-15
 1.42470250e-15
 1.42470250e-15
 1.42470250e-15
 1.94186119e-15
 1.94186119e-15
)
)
1
(
101
(
 3.02024284e-12
 3.02024284e-12
 3.02024284e-12
 3.02024284e-12
 3.02024284e-12
 3.02024284e-12
 3.02024284e-12
 3.02024284e-12
 3.02024284e-12
 3.02024284e-12
 3.02024284e-12
 3.02024284e-12
 3.02024284e-12
 3.02024284e-12
 3.02024284e-12
 3.02024284e-12
 3.02024284e-12
 3.02024284e-12
 3.02024284e-12
 2.07466467e-11
 2.07466467e-11
 2.07466467e-11
 2.07466467e-11
 2.07466467e-11
 2.07466467e-11
 2.07466467e-11
 2.07466467e-11
 2.07466467e-11
 2.07466467e-11
 2.07466467e-11
 2.07466467e-11
 2.07466467e-11
 2.07466467e-11
 2.07466467e-11
 2.07466467e-11
 2.07466467e-11
 2.07466467e-11
 2.07466467e-11
 2.07466467e-11
 2.07466467e-11
 2.07466467e-11
 2.07466467e-11
 2.59861957e-14
 2.59861957e-14
 2.59861957e-14
 2.59861957e-14
 2.59861957e-14
 2.59861957e-14
 2.59861957e-14
 2.59861957e-14
 2.59861957e-14
 2.02355991e-14
 2.02355991e-14
 2.02355991e-14
 2.02355991e-14
 2.02355991e-14
 2.02355991e-14
 2.02355991e-14
 2.02355991e-14
 2.36644816e-13
 2.36644816e-13
 2.36644816e-13
 2.36644816e-13
 2.36644816e-13
 2.36644816e-13
 2.36644816e-13
 2.36644816e-13
 2.36644816e-13
 2.36644816e-13
 2.36644816e-13
 2.36644816e-13
 2.36644816e-13
 2.36644816e-13
 1.93920182e-13
 1.93920182e-13
 1.93920182e-13
 1.93920182e-13
 1.93920182e-13
 1.93920182e-13
 1.93920182e-13
 1.93920182e-13
 1.93920182e-13
 1.93920182e-13
 1.93920182e-13
 1.01760193e-14
 1.01760193e-14
 1.01760193e-14
 4.11600379e-15
 4.11600379e-15
 4.11600379e-15
 4.11600379e-15
 4.11600379e-15
 4.11600379e-15
 1.07900246e-14
 1.07900246e-14
 1.40543795e-15
 1.40543795e-15
 1.42470250e-15
 1.42470250e-15
 1.42470250e-15
 1.42470250e-15
)
)
1
(
101
(
 4.36244885e-12
 4.36244885e-12
 4.36244885e-12
 4.36244885e-12
 4.36244885e-12
 4.36244885e-12
 4.36244885e-12
 4.36244885e-12
 4.36244885e-12
 4.36244885e-12
 4.36244885e-12
 4.36244885e-12
 4.36244885e-12
 4.36244885e-12
 2.07466467e-11
 2.07466467e-11
 2.07466467e-11
 2.07466467e-11
 2.07466467e-11
 2.07466467e-11
 2.07466467e-11
 2.07466467e-11
 2.07466467e-11
 2.07466467e-11
 2.07466467e-11
 2.07466467e-11
 2.07466467e-11
 2.07466467e-11
 2.07466467e-11
 2.07466467e-11
 2.07466467e-11
 2.07466467e-11
 2.07466467e-11
 2.07466467e-11
 2.07466467e-11
 2.07466467e-11
 2.07466467e-11
 2.07466467e-11
 2.07466467e-11
 2.07466467e-11
 2.07466467e-11
 2.07466467e-11
 2.59861957e-14
 2.59861957e-14
 2.59861957e-14
 2.59861957e-14
 2.59861957e-14
 2.59861957e-14
 2.59861957e-14
 2.59861957e-14
 2.59861957e-14
 2.59861957e-14
 2.02355991e-14
 2.02355991e-14
 2.02355991e-14
 2.02355991e-14
 2.02355991e-14
 2.02355991e-14
 2.02355991e-14
 2.02355991e-14
 2.36644816e-13
 2.36644816e-13
 2.36644816e-13
 2.36644816e-13
 2.36644816e-13
 2.36644816e-13
 2.36644816e-13
 2.36644816e-13
 2.36644816e-13
 2.36644816e-13
 2.36644816e-13
 2.36644816e-13
 2.36644816e-13
 2.36644816e-13
 2.36644816e-13
 1.93920182e-13
 1.93920182e-13
 1.93920182e-13
 1.93920182e-13
 1.93920182e-13
 1.93920182e-13
 1.93920182e-13
 1.93920182e-13
 1.93920182e-13
 1.93920182e-13
 1.01760193e-14
 1.01760193e-14
 1.01760193e-14
 1.01760193e-14
 4.11600379e-15
 4.11600379e-15
 4.11600379e-15
 4.11600379e-15
 4.11600379e-15
 1.07900246e-14
 1.07900246e-14
 1.40543795e-15
 1.40543795e-15
 1.42470250e-15
 1.42470250e-15
 1.42470250e-15
)
)
1
(
101
(
 5.15632422e-12
 5.15632422e-12
 5.15632422e-12
 5.15632422e-12
 5.15632422e-12
 5.15632422e-12
 5.15632422e-12
 5.15632422e-12
 5.15632422e-12
 2.07466467e-11
 2.07466467e-11
 2.07466467e-11
 2.07466467e-11
 2.07466467e-11
 2.07466467e-11
 2.07466467e-11
 2.07466467e-11
 2.07466467e-11
 2.07466467e-11
 2.07466467e-11
 2.07466467e-11
 2.07466467e-11
 2.07466467e-11
 2.07466467e-11
 2.07466467e-11
 2.07466467e-11
 2.07466467e-11
 2.07466467e-11
 2.07466467e-11
 2.07466467e-11
 2.07466467e-11
 2.07466467e-11
 2.07466467e-11
 2.07466467e-11
 2.07466467e-11
 2.07466467e-11
 2.07466467e-11
 2.07466467e-11
 2.07466467e-11
 2.07466467e-11
 2.07466467e-11
 2.07466467e-11
 2.59861957e-14
 2.59861957e-14
 2.59861957e-14
 2.59861957e-14
 2.59861957e-14
 2.59861957e-14
 2.59861957e-14
 2.59861957e-14
 2.59861957e-14
 2.59861957e-14
 2.59861957e-14
 2.59861957e-14
 2.02355991e-14
 2.02355991e-14
 2.02355991e-14
 2.02355991e-14
 2.02355991e-14
 2.02355991e-14
 2.02355991e-14
 2.02355991e-14
 2.36644816e-13
 2.36644816e-13
 2.36644816e-13
 2.36644816e-13
 2.36644816e-13
 2.36644816e-13
 2.36644816e-13
 2.36644816e-13
 2.36644816e-13
 2.36644816e-13
 2.36644816e-13
 2.36644816e-13
 2.36644816e-13
 2.36644816e-13
 1.93920182e-13
 1.93920182e-13
 1.93920182e-13
 1.93920182e-13
 1.93920182e-13
 1.93920182e-13
 1.93920182e-13
 1.93920182e-13
 1.93920182e-13
 1.93920182e-13
 1.01760193e-14
 1.01760193e-14
 1.01760193e-14
 1.01760193e-14
 3.80022924e-15
 4.11600379e-15
 4.11600379e-15
 4.11600379e-15
 4.11600379e-15
 1.07900246e-14
 1.07900246e-14
 1.40543795e-15
 1.40543795e-15
 1.42470250e-15
 1.42470250e-15
)
)
1
(
101
(
 5.88435683e-12
 5.88435683e-12
 5.88435683e-12
 5.88435683e-12
 5.88435683e-12
 5.88435683e-12
 2.07466467e-11
 2.07466467e-11
 2.07466467e-11
 2.07466467e-11
 2.07466467e-11
 2.07466467e-11
 2.07466467e-11
 2.07466467e-11
 2.07466467e-11
 2.07466467e-11
 2.07466467e-11
 2.07466467e-11
 2.07466467e-11
 2.07466467e-11
 2.07466467e-11
 2.07466467e-11
 2.07466467e-11
 2.07466467e-11
 2.07466467e-11
 2.07466467e-11
 2.07466467e-11
 2.07466467e-11
 2.07466467e-11
 2.07466467e-11
 2.07466467e-11
 2.07466467e-11
 2.07466467e-11
 2.07466467e-11
 2.07466467e-11
 2.07466467e-11
 2.07466467e-11
 2.07466467e-11
 2.07466467e-11
 2.07466467e-11
 2.07466467e-11
 2.07466467e-11
 2.59861957e-14
 2.59861957e-14
 2.59861957e-14
 2.59861957e-14
 2.59861957e-14
 2.59861957e-14
 2.59861957e-14
 2.59861957e-14
 2.59861957e-14
 2.59861957e-14
 2.59861957e-14
 2.59861957e-14
 2.59861957e-14
 2.02355991e-14
 2.02355991e-14
 2.02355991e-14
 2.02355991e-14
 2.02355991e-14
 2.02355991e-14
 2.02355991e-14
 2.02355991e-14
 2.36644816e-13
 2.36644816e-13
 2.36644816e-13
 2.36644816e-13
 2.36644816e-13
 2.36644816e-13
 2.36644816e-13
 2.36644816e-13
 2.36644816e-13
 2.36644816e-13
 2.36644816e-13
 2.36644816e-13
 2.36644816e-13
 2.36644816e-13
 1.93920182e-13
 1.93920182e-13
 1.93920182e-13
 1.93920182e-13
 1.93920182e-13
 1.93920182e-13
 1.93920182e-13
 1.93920182e-13
 1.93920182e-13
 1.93920182e-13
 1.01760193e-14
 1.01760193e-14
 1.01760193e-14
 1.01760193e-14
 3.80022924e-15
 3.80022924e-15
 2.70325532e-15
 2.70325532e-15
 2.70325532e-15
 1.07900246e-14
 1.07900246e-14
 1.40543795e-15
 1.40543795e-15
 1.42470250e-15
)
)
1
(
101
(
 7.64884341e-12
 7.64884341e-12
 7.64884341e-12
 2.07466467e-11
 2.07466467e-11
 2.07466467e-11
 2.07466467e-11
 2.07466467e-11
 2.07466467e-11
 2.07466467e-11
 2.07466467e-11
 2.07466467e-11
 2.07466467e-11
 2.07466467e-11
 2.07466467e-11
 2.07466467e-11
 2.07466467e-11
 2.07466467e-11
 2.07466467e-11
 2.07466467e-11
 2.07466467e-11
 2.07466467e-11
 2.07466467e-11
 2.07466467e-11
 2.07466467e-11
 2.07466467e-11
 2.07466467e-11
 2.07466467e-11
 2.07466467e-11
 2.07466467e-11
 2.07466467e-11
 2.07466467e-11
 2.07466467e-11
 2.07466467e-11
 2.07466467e-11
 2.07466467e-11
 2.07466467e-11
 2.07466467e-11
 2.07466467e-11
 2.07466467e-11
 2.07466467e-11
 8.43044808e-15
 2.59861957e-14
 2.59861957e-14
 2.59861957e-14
 2.59861957e-14
 2.59861957e-14
 2.59861957e-14
 2.59861957e-14
 2.59861957e-14
 2.59861957e-14
 2.59861957e-14
 2.59861957e-14
 2.59861957e-14
 2.59861957e-14
 2.59861957e-14
 2.02355991e-14
 2.02355991e-14
 2.02355991e-14
 2.02355991e-14
 2.02355991e-14
 2.02355991e-14
 2.02355991e-14
 2.02355991e-14
 2.02355991e-14
 2.36644816e-13
 2.36644816e-13
 2.36644816e-13
 2.36644816e-13
 2.36644816e-13
 2.36644816e-13
 2.36644816e-13
 2.36644816e-13
 2.36644816e-13
 2.36644816e-13
 2.36644816e-13
 2.36644816e-13
 2.36644816e-13
 1.93920182e-13
 1.93920182e-13
 1.93920182e-13
 1.93920182e-13
 1.93920182e-13
 1.93920182e-13
 1.93920182e-13
 1.93920182e-13
 1.93920182e-13
 1.93920182e-13
 1.01760193e-14
 1.01760193e-14
 1.01760193e-14
 1.01760193e-14
 3.80022924e-15
 3.80022924e-15
 2.70325532e-15
 2.70325532e-15
 2.70325532e-15
 2.70325532e-15
 1.07900246e-14
 1.40543795e-15
 1.40543795e-15
)
)
1
(
101
(
 6.31636238e-12
 6.31636238e-12
 2.07466467e-11
 2.07466467e-11
 2.07466467e-11
 2.07466467e-11
 2.07466467e-11
 2.07466467e-11
 2.07466467e-11
 2.07466467e-11
 2.07466467e-11
 2.07466467e-11
 2.07466467e-11
 2.07466467e-11
 2.07466467e-11
 2.07466467e-11
 2.07466467e-11
 2.07466467e-11
 2.07466467e-11
 2.07466467e-11
 2.07466467e-11
 2.07466467e-11
 2.07466467e-11
 2.07466467e-11
 2.07466467e-11
 2.07466467e-11
 2.07466467e-11
 2.07466467e-11
 2.07466467e-11
 2.07466467e-11
 2.07466467e-11
 2.07466467e-11
 2.07466467e-11
 2.07466467e-11
 2.07466467e-11
 2.07466467e-11
 2.07466467e-11
 2.07466467e-11
 2.07466467e-11
 2.07466467e-11
 2.07466467e-11
 8.43044808e-15
 8.43044808e-15
 2.59861957e-14
 2.59861957e-14
 2.59861957e-14
 2.59861957e-14
 2.59861957e-14
 2.59861957e-14
 2.59861957e-14
 2.59861957e-14
 2.59861957e-14
 2.59861957e-14
 2.59861957e-14
 2.59861957e-14
 2.59861957e-14
 2.59861957e-14
 2.02355991e-14
 2.02355991e-14
 2.02355991e-14
 2.02355991e-14
 2.02355991e-14
 2.02355991e-14
 2.02355991e-14
 2.02355991e-14
 2.02355991e-14
 2.36644816e-13
 2.36644816e-13
 2.36644816e-13
 2.36644816e-13
 2.36644816e-13
 2.36644816e-13
 2.36644816e-13
 2.36644816e-13
 2.36644816e-13
 2.36644816e-13
 2.36644816e-13
 2.36644816e-13
 2.36644816e-13
 2.36644816e-13
 1.93920182e-13
 1.93920182e-13
 1.93920182e-13
 1.93920182e-13
 1.93920182e-13
 1.93920182e-13
 1.93920182e-13
 1.93920182e-13
 5.47567616e-15
 1.01760193e-14
 1.01760193e-14
 1.01760193e-14
 1.26319918e-17
 1.26319918e-17
 1.26319918e-17
 2.70325532e-15
 2.70325532e-15
 2.70325532e-15
 2.70325532e-15
 2.70325532e-15
 1.40543795e-15
)
)
1
(
101
(
 4.53446234e-14
 2.07466467e-11
 2.07466467e-11
 2.07466467e-11
 2.07466467e-11
 2.07466467e-11
 2.07466467e-11
 2.07466467e-11
 2.07466467e-11
 2.07466467e-11
 2.07466467e-11
 2.07466467e-11
 2.07466467e-11
 2.07466467e-11
 2.07466467e-11
 2.07466467e-11
 2.07466467e-11
 2.07466467e-11
 2.07466467e-11
 2.07466467e-11
 2.07466467e-11
 2.07466467e-11
 2.07466467e-11
 2.07466467e-11
 2.07466467e-11
 2.07466467e-11
 2.07466467e-11
 2.07466467e-11
 2.07466467e-11
 2.07466467e-11
 2.07466467e-11
 2.07466467e-11
 2.07466467e-11
 2.07466467e-11
 2.07466467e-11
 2.07466467e-11
 2.07466467e-11
 2.07466467e-11
 2.07466467e-11
 2.07466467e-11
 8.43044808e-15
 8.43044808e-15
 8.43044808e-15
 8.43044808e-15
 2.59861957e-14
 2.59861957e-14
 2.59861957e-14
 2.59861957e-14
 2.59861957e-14
 2.59861957e-14
 2.59861957e-14
 2.59861957e-14
 2.59861957e-14
 2.59861957e-14
 2.59861957e-14
 2.59861957e-14
 2.59861957e-14
 2.59861957e-14
 2.02355991e-14
 2.02355991e-14
 2.02355991e-14
 2.02355991e-14
 2.02355991e-14
 2.02355991e-14
 2.02355991e-14
 2.02355991e-14
 2.02355991e-14
 2.02355991e-14
 2.36644816e-13
 2.36644816e-13
 2.36644816e-13
 2.36644816e-13
 2.36644816e-13
 2.36644816e-13
 2.36644816e-13
 2.36644816e-13
 2.36644816e-13
 2.36644816e-13
 2.36644816e-13
 2.36644816e-13
 2.36644816e-13
 1.38205620e-14
 1.93920182e-13
 1.93920182e-13
 1.93920182e-13
 1.93920182e-13
 1.93920182e-13
 1.93920182e-13
 1.93920182e-13
 5.47567616e-15
 5.47567616e-15
 4.21247711e-16
 4.21247711e-16
 1.26319918e-17
 1.26319918e-17
 1.26319918e-17
 1.26319918e-17
 2.70325532e-15
 2.70325532e-15
 2.70325532e-15
 2.70325532e-15
)
)
1
(
101
(
 4.53446234e-14
 1.20000508e-11
 1.20000508e-11
 1.20000508e-11
 1.20000508e-11
 1.20000508e-11
 1.20000508e-11
 1.20000508e-11
 1.20000508e-11
 1.20000508e-11
 1.20000508e-11
 1.20000508e-11
 1.20000508e-11
 1.20000508e-11
 1.20000508e-11
 1.20000508e-11
 1.20000508e-11
 1.20000508e-11
 1.20000508e-11
 1.20000508e-11
 1.20000508e-11
 1.20000508e-11
 1.20000508e-11
 1.20000508e-11
 1.20000508e-11
 1.20000508e-11
 1.20000508e-11
 1.20000508e-11
 1.20000508e-11
 1.20000508e-11
 1.20000508e-11
 1.20000508e-11
 1.20000508e-11
 1.20000508e-11
 1.20000508e-11
 1.20000508e-11
 1.20000508e-11
 1.20000508e-11
 1.20000508e-11
 1.20000508e-11
 8.43044808e-15
 8.43044808e-15
 8.43044808e-15
 8.43044808e-15
 8.43044808e-15
 2.59861957e-14
 2.59861957e-14
 2.59861957e-14
 2.59861957e-14
 2.59861957e-14
 2.59861957e-14
 2.59861957e-14
 2.59861957e-14
 2.59861957e-14
 2.59861957e-14
 2.59861957e-14
 2.59861957e-14
 2.59861957e-14
 2.59861957e-14
 2.02355991e-14
 2.02355991e-14
 2.02355991e-14
 2.02355991e-14
 2.02355991e-14
 2.02355991e-14
 2.02355991e-14
 2.02355991e-14
 2.02355991e-14
 2.02355991e-14
 2.36644816e-13
 2.36644816e-13
 2.36644816e-13
 2.36644816e-13
 2.36644816e-13
 2.36644816e-13
 2.36644816e-13
 2.36644816e-13
 2.36644816e-13
 2.36644816e-13
 2.36644816e-13
 2.36644816e-13
 2.36644816e-13
 1.38205620e-14
 1.38205620e-14
 1.93920182e-13
 1.93920182e-13
 1.93920182e-13
 1.93920182e-13
 1.93920182e-13
 5.47567616e-15
 5.47567616e-15
 5.47567616e-15
 4.21247711e-16
 4.21247711e-16
 1.26319918e-17
 1.26319918e-17
 1.26319918e-17
 1.26319918e-17
 1.26319918e-17
 2.70325532e-15
 2.70325532e-15
)
)
1
(
101
(
 1.64835325e-11
 1.64835325e-11
 1.64835325e-11
 1.64835325e-11
 1.64835325e-11
 1.64835325e-11
 1.64835325e-11
 1.64835325e-11
 1.64835325e-11
 1.64835325e-11
 1.64835325e-11
 1.64835325e-11
 1.64835325e-11
 1.64835325e-11
 1.64835325e-11
 1.64835325e-11
 1.64835325e-11
 1.64835325e-11
 1.64835325e-11
 1.64835325e-11
 1.64835325e-11
 1.64835325e-11
 1.64835325e-11
 1.64835325e-11
 1.64835325e-11
 1.64835325e-11
 1.64835325e-11
 1.64835325e-11
 1.64835325e-11
 1.64835325e-11
 1.64835325e-11
 1.64835325e-11
 1.64835325e-11
 1.64835325e-11
 1.64835325e-11
 1.64835325e-11
 1.64835325e-11
 1.64835325e-11
 1.64835325e-11
 1.64835325e-11
 8.43044808e-15
 8.43044808e-15
 8.43044808e-15
 8.43044808e-15
 8.43044808e-15
 8.43044808e-15
 2.59861957e-14
 2.59861957e-14
 2.59861957e-14
 2.59861957e-14
 2.59861957e-14
 2.59861957e-14
 2.59861957e-14
 2.59861957e-14
 2.59861957e-14
 2.59861957e-14
 2.59861957e-14
 2.59861957e-14
 2.59861957e-14
 2.59861957e-14
 2.59861957e-14
 2.02355991e-14
 2.02355991e-14
 2.02355991e-14
 2.02355991e-14
 2.02355991e-14
 2.02355991e-14
 2.02355991e-14
 2.02355991e-14
 2.02355991e-14
 2.02355991e-14
 2.36644816e-13
 2.36644816e-13
 2.36644816e-13
 2.36644816e-13
 2.36644816e-13
 2.36644816e-13
 2.36644816e-13
 2.36644816e-13
 2.36644816e-13
 2.36644816e-13
 2.36644816e-13
 2.36644816e-13
 1.38205620e-14
 1.38205620e-14
 1.38205620e-14
 1.93920182e-13
 1.93920182e-13
 1.93920182e-13
 1.93920182e-13
 5.47567616e-15
 5.47567616e-15
 5.47567616e-15
 4.21247711e-16
 4.21247711e-16
 1.26319918e-17
 1.26319918e-17
 1.26319918e-17
 1.26319918e-17
 1.26319918e-17
 1.26319918e-17
)
)
1
(
101
(
 2.05357721e-11
 2.05357721e-11
 2.05357721e-11
 2.05357721e-11
 2.05357721e-11
 2.05357721e-11
 2.05357721e-11
 2.05357721e-11
 2.05357721e-11
 2.05357721e-11
 2.05357721e-11
 2.05357721e-11
 2.05357721e-11
 2.05357721e-11
 2.05357721e-11
 2.05357721e-11
 2.05357721e-11
 2.05357721e-11
 2.05357721e-11
 2.05357721e-11
 2.05357721e-11
 2.05357721e-11
 2.05357721e-11
 2.05357721e-11
 2.05357721e-11
 2.05357721e-11
 2.05357721e-11
 2.05357721e-11
 2.05357721e-11
 2.05357721e-11
 2.05357721e-11
 2.05357721e-11
 2.05357721e-11
 2.05357721e-11
 2.05357721e-11
 2.05357721e-11
 2.05357721e-11
 2.05357721e-11
 2.05357721e-11
 8.43044808e-15
 8.43044808e-15
 8.43044808e-15
 8.43044808e-15
 8.43044808e-15
 8.43044808e-15
 8.43044808e-15
 8.43044808e-15
 8.43044808e-15
 2.59861957e-14
 2.59861957e-14
 2.59861957e-14
 2.59861957e-14
 2.59861957e-14
 2.59861957e-14
 2.59861957e-14
 2.59861957e-14
 2.59861957e-14
 2.59861957e-14
 2.59861957e-14
 2.59861957e-14
 2.59861957e-14
 2.59861957e-14
 2.02355991e-14
 2.02355991e-14
 2.02355991e-14
 2.02355991e-14
 2.02355991e-14
 2.02355991e-14
 2.02355991e-14
 2.02355991e-14
 2.02355991e-14
 2.02355991e-14
 2.36644816e-13
 2.36644816e-13
 2.36644816e-13
 2.36644816e-13
 2.36644816e-13
 2.36644816e-13
 2.36644816e-13
 2.36644816e-13
 2.36644816e-13
 2.36644816e-13
 2.36644816e-13
 2.36644816e-13
 1.38205620e-14
 1.38205620e-14
 1.38205620e-14
 1.38205620e-14
 1.02987621e-14
 1.02987621e-14
 1.02987621e-14
 5.47567616e-15
 5.47567616e-15
 5.47567616e-15
 4.21247711e-16
 4.21247711e-16
 1.26319918e-17
 1.26319918e-17
 1.26319918e-17