/*--------------------------------*- C++ -*----------------------------------*\
| =========                 |                                                 |
| \\      /  F ield        | OpenFOAM: The Open Source CFD Toolbox           |
|  \\    /   O peration    | Version:  7                                     |
|   \\  /    A nd          | Web:      http://www.OpenFOAM.com               |
|    \\/     M anipulation |                                                 |
\*---------------------------------------------------------------------------*/

FoamFile
{
    version     2.0;
    format      ascii;
    class       dictionary;
    object      Y_NH3_table;
}

Y_NH3_table
2
(
101
(
1
(
101
(
 2.61068067e-14
 2.61068067e-14
 2.61068067e-14
 2.61068067e-14
 2.61068067e-14
 2.61068067e-14
 2.61068067e-14
 2.61068067e-14
 2.61068067e-14
 2.61068067e-14
 2.61068067e-14
 2.61068067e-14
 2.61068067e-14
 2.61068067e-14
 2.61068067e-14
 2.61068067e-14
 2.61068067e-14
 2.61068067e-14
 2.61068067e-14
 2.61068067e-14
 2.61068067e-14
 2.61068067e-14
 2.61068067e-14
 2.61068067e-14
 2.61068067e-14
 2.61068067e-14
 2.61068067e-14
 2.61068067e-14
 2.61068067e-14
 2.61068067e-14
 2.61068067e-14
 2.61068067e-14
 2.61068067e-14
 2.61068067e-14
 2.61068067e-14
 2.61068067e-14
 2.61068067e-14
 2.61068067e-14
 2.61068067e-14
 2.61068067e-14
 2.61068067e-14
 2.61068067e-14
 2.61068067e-14
 2.61068067e-14
 2.61068067e-14
 3.83791895e-06
 3.83791895e-06
 6.31523110e-07
 6.31523110e-07
 6.31523110e-07
 6.31523110e-07
 6.31523110e-07
 6.31523110e-07
 6.31523110e-07
 6.31523110e-07
 6.31523110e-07
 6.31523110e-07
 6.31523110e-07
 6.31523110e-07
 6.31523110e-07
 6.31523110e-07
 6.31523110e-07
 6.31523110e-07
 4.71806139e-07
 4.71806139e-07
 4.71806139e-07
 4.71806139e-07
 4.71806139e-07
 4.71806139e-07
 4.71806139e-07
 4.71806139e-07
 4.71806139e-07
 4.71806139e-07
 4.71806139e-07
 4.71806139e-07
 1.36822457e-06
 1.36822457e-06
 1.36822457e-06
 1.36822457e-06
 1.36822457e-06
 1.36822457e-06
 1.36822457e-06
 8.30125140e-07
 8.30125140e-07
 8.30125140e-07
 8.30125140e-07
 8.30125140e-07
 8.30125140e-07
 4.57814205e-07
 4.57814205e-07
 4.57814205e-07
 4.57814205e-07
 4.57814205e-07
 4.57814205e-07
 4.57814205e-07
 1.51043396e-07
 1.51043396e-07
 1.51043396e-07
 1.51043396e-07
 1.51043396e-07
 2.10367272e-09
)
)
1
(
101
(
 1.45148880e-12
 1.45148880e-12
 1.45148880e-12
 1.45148880e-12
 1.45148880e-12
 1.45148880e-12
 1.45148880e-12
 1.45148880e-12
 1.45148880e-12
 1.45148880e-12
 1.45148880e-12
 1.45148880e-12
 1.45148880e-12
 1.45148880e-12
 1.45148880e-12
 1.45148880e-12
 1.45148880e-12
 1.45148880e-12
 1.45148880e-12
 1.45148880e-12
 1.45148880e-12
 1.45148880e-12
 1.45148880e-12
 1.45148880e-12
 1.45148880e-12
 1.45148880e-12
 1.45148880e-12
 1.45148880e-12
 1.45148880e-12
 1.45148880e-12
 1.45148880e-12
 1.45148880e-12
 1.45148880e-12
 1.45148880e-12
 1.45148880e-12
 1.45148880e-12
 1.45148880e-12
 1.45148880e-12
 1.45148880e-12
 1.45148880e-12
 1.45148880e-12
 1.45148880e-12
 1.45148880e-12
 1.45148880e-12
 1.45148880e-12
 3.83791895e-06
 3.83791895e-06
 3.83791895e-06
 6.31523110e-07
 6.31523110e-07
 6.31523110e-07
 6.31523110e-07
 6.31523110e-07
 6.31523110e-07
 6.31523110e-07
 6.31523110e-07
 6.31523110e-07
 6.31523110e-07
 6.31523110e-07
 6.31523110e-07
 6.31523110e-07
 6.31523110e-07
 6.31523110e-07
 6.31523110e-07
 6.31523110e-07
 4.71806139e-07
 4.71806139e-07
 4.71806139e-07
 4.71806139e-07
 4.71806139e-07
 4.71806139e-07
 4.71806139e-07
 4.71806139e-07
 4.71806139e-07
 4.71806139e-07
 4.71806139e-07
 4.71806139e-07
 1.36822457e-06
 1.36822457e-06
 1.36822457e-06
 1.36822457e-06
 1.36822457e-06
 1.36822457e-06
 8.30125140e-07
 8.30125140e-07
 8.30125140e-07
 8.30125140e-07
 8.30125140e-07
 8.30125140e-07
 8.30125140e-07
 4.57814205e-07
 4.57814205e-07
 4.57814205e-07
 4.57814205e-07
 4.57814205e-07
 4.57814205e-07
 4.80353599e-07
 1.51043396e-07
 1.51043396e-07
 1.51043396e-07
 1.11526602e-07
)
)
1
(
101
(
 3.29742494e-12
 3.29742494e-12
 3.29742494e-12
 3.29742494e-12
 3.29742494e-12
 3.29742494e-12
 3.29742494e-12
 3.29742494e-12
 3.29742494e-12
 3.29742494e-12
 3.29742494e-12
 3.29742494e-12
 3.29742494e-12
 3.29742494e-12
 3.29742494e-12
 3.29742494e-12
 3.29742494e-12
 3.29742494e-12
 3.29742494e-12
 3.29742494e-12
 3.29742494e-12
 3.29742494e-12
 3.29742494e-12
 3.29742494e-12
 3.29742494e-12
 3.29742494e-12
 3.29742494e-12
 3.29742494e-12
 3.29742494e-12
 3.29742494e-12
 3.29742494e-12
 3.29742494e-12
 3.29742494e-12
 3.29742494e-12
 3.29742494e-12
 3.29742494e-12
 3.29742494e-12
 3.29742494e-12
 3.29742494e-12
 3.29742494e-12
 3.29742494e-12
 3.29742494e-12
 3.29742494e-12
 3.29742494e-12
 3.83791895e-06
 3.83791895e-06
 3.83791895e-06
 3.83791895e-06
 3.83791895e-06
 3.83791895e-06
 6.31523110e-07
 6.31523110e-07
 6.31523110e-07
 6.31523110e-07
 6.31523110e-07
 6.31523110e-07
 6.31523110e-07
 6.31523110e-07
 6.31523110e-07
 6.31523110e-07
 6.31523110e-07
 6.31523110e-07
 6.31523110e-07
 6.31523110e-07
 6.31523110e-07
 6.31523110e-07
 4.71806139e-07
 4.71806139e-07
 4.71806139e-07
 4.71806139e-07
 4.71806139e-07
 4.71806139e-07
 4.71806139e-07
 4.71806139e-07
 4.71806139e-07
 4.71806139e-07
 4.71806139e-07
 4.71806139e-07
 1.36822457e-06
 1.36822457e-06
 1.36822457e-06
 1.36822457e-06
 1.36822457e-06
 1.36822457e-06
 1.36822457e-06
 8.30125140e-07
 8.30125140e-07
 8.30125140e-07
 8.30125140e-07
 8.30125140e-07
 8.30125140e-07
 4.57814205e-07
 4.57814205e-07
 4.57814205e-07
 4.57814205e-07
 4.57814205e-07
 4.57814205e-07
 4.80353599e-07
 4.80353599e-07
 3.28862940e-07
 3.28862940e-07
)
)
1
(
101
(
 3.83630895e-12
 3.83630895e-12
 3.83630895e-12
 3.83630895e-12
 3.83630895e-12
 3.83630895e-12
 3.83630895e-12
 3.83630895e-12
 3.83630895e-12
 3.83630895e-12
 3.83630895e-12
 3.83630895e-12
 3.83630895e-12
 3.83630895e-12
 3.83630895e-12
 3.83630895e-12
 3.83630895e-12
 3.83630895e-12
 3.83630895e-12
 3.83630895e-12
 3.83630895e-12
 3.83630895e-12
 3.83630895e-12
 3.83630895e-12
 3.83630895e-12
 3.83630895e-12
 3.83630895e-12
 3.83630895e-12
 3.83630895e-12
 3.83630895e-12
 3.83630895e-12
 3.83630895e-12
 3.83630895e-12
 3.83630895e-12
 3.83630895e-12
 3.83630895e-12
 3.83630895e-12
 3.83630895e-12
 3.83630895e-12
 3.83630895e-12
 3.83630895e-12
 3.83630895e-12
 3.83630895e-12
 3.83630895e-12
 5.98422276e-06
 3.83791895e-06
 3.83791895e-06
 3.83791895e-06
 3.83791895e-06
 3.83791895e-06
 3.83791895e-06
 6.31523110e-07
 6.31523110e-07
 6.31523110e-07
 6.31523110e-07
 6.31523110e-07
 6.31523110e-07
 6.31523110e-07
 6.31523110e-07
 6.31523110e-07
 6.31523110e-07
 6.31523110e-07
 6.31523110e-07
 6.31523110e-07
 6.31523110e-07
 6.31523110e-07
 6.31523110e-07
 4.71806139e-07
 4.71806139e-07
 4.71806139e-07
 4.71806139e-07
 4.71806139e-07
 4.71806139e-07
 4.71806139e-07
 4.71806139e-07
 4.71806139e-07
 4.71806139e-07
 4.71806139e-07
 4.71806139e-07
 2.06463109e-06
 1.36822457e-06
 1.36822457e-06
 1.36822457e-06
 1.36822457e-06
 1.36822457e-06
 1.36822457e-06
 8.30125140e-07
 8.30125140e-07
 8.30125140e-07
 8.30125140e-07
 8.30125140e-07
 8.30125140e-07
 8.30125140e-07
 4.57814205e-07
 4.57814205e-07
 4.57814205e-07
 4.57814205e-07
 4.57814205e-07
 4.80353599e-07
 7.02475661e-07
 7.02475661e-07
)
)
1
(
101
(
 6.09356551e-12
 6.09356551e-12
 6.09356551e-12
 6.09356551e-12
 6.09356551e-12
 6.09356551e-12
 6.09356551e-12
 6.09356551e-12
 6.09356551e-12
 6.09356551e-12
 6.09356551e-12
 6.09356551e-12
 6.09356551e-12
 6.09356551e-12
 6.09356551e-12
 6.09356551e-12
 6.09356551e-12
 6.09356551e-12
 6.09356551e-12
 6.09356551e-12
 6.09356551e-12
 6.09356551e-12
 6.09356551e-12
 6.09356551e-12
 6.09356551e-12
 6.09356551e-12
 6.09356551e-12
 6.09356551e-12
 6.09356551e-12
 6.09356551e-12
 6.09356551e-12
 6.09356551e-12
 6.09356551e-12
 6.09356551e-12
 6.09356551e-12
 6.09356551e-12
 6.09356551e-12
 6.09356551e-12
 6.09356551e-12
 6.09356551e-12
 6.09356551e-12
 6.09356551e-12
 6.09356551e-12
 6.09356551e-12
 5.98422276e-06
 5.98422276e-06
 5.98422276e-06
 3.83791895e-06
 3.83791895e-06
 3.83791895e-06
 3.83791895e-06
 3.83791895e-06
 3.83791895e-06
 6.31523110e-07
 6.31523110e-07
 6.31523110e-07
 6.31523110e-07
 6.31523110e-07
 6.31523110e-07
 6.31523110e-07
 6.31523110e-07
 6.31523110e-07
 6.31523110e-07
 6.31523110e-07
 6.31523110e-07
 6.31523110e-07
 6.31523110e-07
 6.31523110e-07
 4.71806139e-07
 4.71806139e-07
 4.71806139e-07
 4.71806139e-07
 4.71806139e-07
 4.71806139e-07
 4.71806139e-07
 4.71806139e-07
 4.71806139e-07
 4.71806139e-07
 4.71806139e-07
 4.71806139e-07
 2.06463109e-06
 1.36822457e-06
 1.36822457e-06
 1.36822457e-06
 1.36822457e-06
 1.36822457e-06
 1.36822457e-06
 1.36822457e-06
 8.30125140e-07
 8.30125140e-07
 8.30125140e-07
 8.30125140e-07
 8.30125140e-07
 8.30125140e-07
 1.32180340e-06
 4.57814205e-07
 4.57814205e-07
 4.57814205e-07
 8.50427246e-07
 8.50427246e-07
 7.02475661e-07
)
)
1
(
101
(
 6.84666586e-12
 6.84666586e-12
 6.84666586e-12
 6.84666586e-12
 6.84666586e-12
 6.84666586e-12
 6.84666586e-12
 6.84666586e-12
 6.84666586e-12
 6.84666586e-12
 6.84666586e-12
 6.84666586e-12
 6.84666586e-12
 6.84666586e-12
 6.84666586e-12
 6.84666586e-12
 6.84666586e-12
 6.84666586e-12
 6.84666586e-12
 6.84666586e-12
 6.84666586e-12
 6.84666586e-12
 6.84666586e-12
 6.84666586e-12
 6.84666586e-12
 6.84666586e-12
 6.84666586e-12
 6.84666586e-12
 6.84666586e-12
 6.84666586e-12
 6.84666586e-12
 6.84666586e-12
 6.84666586e-12
 6.84666586e-12
 6.84666586e-12
 6.84666586e-12
 6.84666586e-12
 6.84666586e-12
 6.84666586e-12
 6.84666586e-12
 6.84666586e-12
 6.84666586e-12
 3.40683999e-11
 5.98422276e-06
 5.98422276e-06
 5.98422276e-06
 5.98422276e-06
 5.98422276e-06
 3.83791895e-06
 3.83791895e-06
 3.83791895e-06
 3.83791895e-06
 3.83791895e-06
 3.83791895e-06
 6.31523110e-07
 6.31523110e-07
 6.31523110e-07
 6.31523110e-07
 6.31523110e-07
 6.31523110e-07
 6.31523110e-07
 6.31523110e-07
 6.31523110e-07
 6.31523110e-07
 6.31523110e-07
 6.31523110e-07
 6.31523110e-07
 6.31523110e-07
 6.31523110e-07
 6.31523110e-07
 4.71806139e-07
 4.71806139e-07
 4.71806139e-07
 4.71806139e-07
 4.71806139e-07
 4.71806139e-07
 4.71806139e-07
 4.71806139e-07
 4.71806139e-07
 4.71806139e-07
 4.71806139e-07
 2.06463109e-06
 2.06463109e-06
 1.36822457e-06
 1.36822457e-06
 1.36822457e-06
 1.36822457e-06
 1.36822457e-06
 1.36822457e-06
 8.30125140e-07
 8.30125140e-07
 8.30125140e-07
 8.30125140e-07
 8.30125140e-07
 8.30125140e-07
 1.32180340e-06
 1.32180340e-06
 1.00059122e-06
 1.00059122e-06
 8.50427246e-07
 8.50427246e-07
)
)
1
(
101
(
 8.60237060e-12
 8.60237060e-12
 8.60237060e-12
 8.60237060e-12
 8.60237060e-12
 8.60237060e-12
 8.60237060e-12
 8.60237060e-12
 8.60237060e-12
 8.60237060e-12
 8.60237060e-12
 8.60237060e-12
 8.60237060e-12
 8.60237060e-12
 8.60237060e-12
 8.60237060e-12
 8.60237060e-12
 8.60237060e-12
 8.60237060e-12
 8.60237060e-12
 8.60237060e-12
 8.60237060e-12
 8.60237060e-12
 8.60237060e-12
 8.60237060e-12
 8.60237060e-12
 8.60237060e-12
 8.60237060e-12
 8.60237060e-12
 8.60237060e-12
 8.60237060e-12
 8.60237060e-12
 8.60237060e-12
 3.40683999e-11
 3.40683999e-11
 3.40683999e-11
 3.40683999e-11
 3.40683999e-11
 3.40683999e-11
 3.40683999e-11
 3.40683999e-11
 3.40683999e-11
 3.40683999e-11
 5.98422276e-06
 5.98422276e-06
 5.98422276e-06
 5.98422276e-06
 5.98422276e-06
 5.98422276e-06
 3.83791895e-06
 3.83791895e-06
 3.83791895e-06
 3.83791895e-06
 3.83791895e-06
 3.83791895e-06
 3.83791895e-06
 6.31523110e-07
 6.31523110e-07
 6.31523110e-07
 6.31523110e-07
 6.31523110e-07
 6.31523110e-07
 6.31523110e-07
 6.31523110e-07
 6.31523110e-07
 6.31523110e-07
 6.31523110e-07
 6.31523110e-07
 6.31523110e-07
 6.31523110e-07
 6.31523110e-07
 4.71806139e-07
 4.71806139e-07
 4.71806139e-07
 4.71806139e-07
 4.71806139e-07
 4.71806139e-07
 4.71806139e-07
 4.71806139e-07
 4.71806139e-07
 4.71806139e-07
 4.71806139e-07
 2.06463109e-06
 2.06463109e-06
 1.36822457e-06
 1.36822457e-06
 1.36822457e-06
 1.36822457e-06
 1.36822457e-06
 1.36822457e-06
 1.36822457e-06
 8.30125140e-07
 8.30125140e-07
 8.30125140e-07
 8.30125140e-07
 8.30125140e-07
 1.32180340e-06
 1.32180340e-06
 1.00059122e-06
 1.00059122e-06
 8.50427246e-07
)
)
1
(
101
(
 1.07903990e-11
 1.07903990e-11
 1.07903990e-11
 1.07903990e-11
 1.07903990e-11
 1.07903990e-11
 1.07903990e-11
 1.07903990e-11
 1.07903990e-11
 1.07903990e-11
 1.07903990e-11
 1.07903990e-11
 1.07903990e-11
 1.07903990e-11
 1.07903990e-11
 1.07903990e-11
 1.07903990e-11
 1.07903990e-11
 1.07903990e-11
 1.07903990e-11
 1.07903990e-11
 1.07903990e-11
 1.07903990e-11
 1.07903990e-11
 1.07903990e-11
 1.07903990e-11
 3.40683999e-11
 3.40683999e-11
 3.40683999e-11
 3.40683999e-11
 3.40683999e-11
 3.40683999e-11
 3.40683999e-11
 3.40683999e-11
 3.40683999e-11
 3.40683999e-11
 3.40683999e-11
 3.40683999e-11
 3.40683999e-11
 3.40683999e-11
 3.40683999e-11
 3.40683999e-11
 3.40683999e-11
 5.98422276e-06
 5.98422276e-06
 5.98422276e-06
 5.98422276e-06
 5.98422276e-06
 5.98422276e-06
 5.98422276e-06
 3.83791895e-06
 3.83791895e-06
 3.83791895e-06
 3.83791895e-06
 3.83791895e-06
 3.83791895e-06
 3.83791895e-06
 6.31523110e-07
 6.31523110e-07
 6.31523110e-07
 6.31523110e-07
 6.31523110e-07
 6.31523110e-07
 6.31523110e-07
 6.31523110e-07
 6.31523110e-07
 6.31523110e-07
 6.31523110e-07
 6.31523110e-07
 6.31523110e-07
 6.31523110e-07
 6.31523110e-07
 4.71806139e-07
 4.71806139e-07
 4.71806139e-07
 4.71806139e-07
 4.71806139e-07
 4.71806139e-07
 4.71806139e-07
 4.71806139e-07
 4.71806139e-07
 4.71806139e-07
 4.71806139e-07
 2.06463109e-06
 2.06463109e-06
 2.06463109e-06
 1.36822457e-06
 1.36822457e-06
 1.36822457e-06
 1.36822457e-06
 1.36822457e-06
 1.36822457e-06
 1.49486943e-06
 8.30125140e-07
 8.30125140e-07
 8.30125140e-07
 1.56371569e-06
 1.56371569e-06
 1.56371569e-06
 1.00059122e-06
 1.00059122e-06
)
)
1
(
101
(
 1.03401621e-11
 1.03401621e-11
 1.03401621e-11
 1.03401621e-11
 1.03401621e-11
 1.03401621e-11
 1.03401621e-11
 1.03401621e-11
 1.03401621e-11
 1.03401621e-11
 1.03401621e-11
 1.03401621e-11
 1.03401621e-11
 1.03401621e-11
 1.03401621e-11
 1.03401621e-11
 1.03401621e-11
 1.03401621e-11
 1.03401621e-11
 3.40683999e-11
 3.40683999e-11
 3.40683999e-11
 3.40683999e-11
 3.40683999e-11
 3.40683999e-11
 3.40683999e-11
 3.40683999e-11
 3.40683999e-11
 3.40683999e-11
 3.40683999e-11
 3.40683999e-11
 3.40683999e-11
 3.40683999e-11
 3.40683999e-11
 3.40683999e-11
 3.40683999e-11
 3.40683999e-11
 3.40683999e-11
 3.40683999e-11
 3.40683999e-11
 3.40683999e-11
 3.40683999e-11
 5.98422276e-06
 5.98422276e-06
 5.98422276e-06
 5.98422276e-06
 5.98422276e-06
 5.98422276e-06
 5.98422276e-06
 5.98422276e-06
 5.98422276e-06
 3.83791895e-06
 3.83791895e-06
 3.83791895e-06
 3.83791895e-06
 3.83791895e-06
 3.83791895e-06
 3.83791895e-06
 3.83791895e-06
 6.31523110e-07
 6.31523110e-07
 6.31523110e-07
 6.31523110e-07
 6.31523110e-07
 6.31523110e-07
 6.31523110e-07
 6.31523110e-07
 6.31523110e-07
 6.31523110e-07
 6.31523110e-07
 6.31523110e-07
 6.31523110e-07
 6.31523110e-07
 4.71806139e-07
 4.71806139e-07
 4.71806139e-07
 4.71806139e-07
 4.71806139e-07
 4.71806139e-07
 4.71806139e-07
 4.71806139e-07
 4.71806139e-07
 4.71806139e-07
 4.71806139e-07
 2.06463109e-06
 2.06463109e-06
 2.06463109e-06
 1.36822457e-06
 1.36822457e-06
 1.36822457e-06
 1.36822457e-06
 1.36822457e-06
 1.36822457e-06
 1.49486943e-06
 1.49486943e-06
 1.99558713e-06
 1.99558713e-06
 1.56371569e-06
 1.56371569e-06
 1.56371569e-06
 1.56371569e-06
)
)
1
(
101
(
 1.37118165e-11
 1.37118165e-11
 1.37118165e-11
 1.37118165e-11
 1.37118165e-11
 1.37118165e-11
 1.37118165e-11
 1.37118165e-11
 1.37118165e-11
 1.37118165e-11
 1.37118165e-11
 1.37118165e-11
 1.37118165e-11
 1.37118165e-11
 3.40683999e-11
 3.40683999e-11
 3.40683999e-11
 3.40683999e-11
 3.40683999e-11
 3.40683999e-11
 3.40683999e-11
 3.40683999e-11
 3.40683999e-11
 3.40683999e-11
 3.40683999e-11
 3.40683999e-11
 3.40683999e-11
 3.40683999e-11
 3.40683999e-11
 3.40683999e-11
 3.40683999e-11
 3.40683999e-11
 3.40683999e-11
 3.40683999e-11
 3.40683999e-11
 3.40683999e-11
 3.40683999e-11
 3.40683999e-11
 3.40683999e-11
 3.40683999e-11
 3.40683999e-11
 3.40683999e-11
 5.98422276e-06
 5.98422276e-06
 5.98422276e-06
 5.98422276e-06
 5.98422276e-06
 5.98422276e-06
 5.98422276e-06
 5.98422276e-06
 5.98422276e-06
 5.98422276e-06
 3.83791895e-06
 3.83791895e-06
 3.83791895e-06
 3.83791895e-06
 3.83791895e-06
 3.83791895e-06
 3.83791895e-06
 3.83791895e-06
 6.31523110e-07
 6.31523110e-07
 6.31523110e-07
 6.31523110e-07
 6.31523110e-07
 6.31523110e-07
 6.31523110e-07
 6.31523110e-07
 6.31523110e-07
 6.31523110e-07
 6.31523110e-07
 6.31523110e-07
 6.31523110e-07
 6.31523110e-07
 6.31523110e-07
 4.71806139e-07
 4.71806139e-07
 4.71806139e-07
 4.71806139e-07
 4.71806139e-07
 4.71806139e-07
 4.71806139e-07
 4.71806139e-07
 4.71806139e-07
 4.71806139e-07
 2.06463109e-06
 2.06463109e-06
 2.06463109e-06
 2.06463109e-06
 1.36822457e-06
 1.36822457e-06
 1.36822457e-06
 1.36822457e-06
 1.36822457e-06
 1.49486943e-06
 1.49486943e-06
 1.99558713e-06
 1.99558713e-06
 1.56371569e-06
 1.56371569e-06
 1.56371569e-06
)
)
1
(
101
(
 1.36499422e-11
 1.36499422e-11
 1.36499422e-11
 1.36499422e-11
 1.36499422e-11
 1.36499422e-11
 1.36499422e-11
 1.36499422e-11
 1.36499422e-11
 3.40683999e-11
 3.40683999e-11
 3.40683999e-11
 3.40683999e-11
 3.40683999e-11
 3.40683999e-11
 3.40683999e-11
 3.40683999e-11
 3.40683999e-11
 3.40683999e-11
 3.40683999e-11
 3.40683999e-11
 3.40683999e-11
 3.40683999e-11
 3.40683999e-11
 3.40683999e-11
 3.40683999e-11
 3.40683999e-11
 3.40683999e-11
 3.40683999e-11
 3.40683999e-11
 3.40683999e-11
 3.40683999e-11
 3.40683999e-11
 3.40683999e-11
 3.40683999e-11
 3.40683999e-11
 3.40683999e-11
 3.40683999e-11
 3.40683999e-11
 3.40683999e-11
 3.40683999e-11
 3.40683999e-11
 5.98422276e-06
 5.98422276e-06
 5.98422276e-06
 5.98422276e-06
 5.98422276e-06
 5.98422276e-06
 5.98422276e-06
 5.98422276e-06
 5.98422276e-06
 5.98422276e-06
 5.98422276e-06
 5.98422276e-06
 3.83791895e-06
 3.83791895e-06
 3.83791895e-06
 3.83791895e-06
 3.83791895e-06
 3.83791895e-06
 3.83791895e-06
 3.83791895e-06
 6.31523110e-07
 6.31523110e-07
 6.31523110e-07
 6.31523110e-07
 6.31523110e-07
 6.31523110e-07
 6.31523110e-07
 6.31523110e-07
 6.31523110e-07
 6.31523110e-07
 6.31523110e-07
 6.31523110e-07
 6.31523110e-07
 6.31523110e-07
 4.71806139e-07
 4.71806139e-07
 4.71806139e-07
 4.71806139e-07
 4.71806139e-07
 4.71806139e-07
 4.71806139e-07
 4.71806139e-07
 4.71806139e-07
 4.71806139e-07
 2.06463109e-06
 2.06463109e-06
 2.06463109e-06
 2.06463109e-06
 2.07089446e-06
 1.36822457e-06
 1.36822457e-06
 1.36822457e-06
 1.36822457e-06
 1.49486943e-06
 1.49486943e-06
 1.99558713e-06
 1.99558713e-06
 1.56371569e-06
 1.56371569e-06
)
)
1
(
101
(
 1.40782470e-11
 1.40782470e-11
 1.40782470e-11
 1.40782470e-11
 1.40782470e-11
 1.40782470e-11
 3.40683999e-11
 3.40683999e-11
 3.40683999e-11
 3.40683999e-11
 3.40683999e-11
 3.40683999e-11
 3.40683999e-11
 3.40683999e-11
 3.40683999e-11
 3.40683999e-11
 3.40683999e-11
 3.40683999e-11
 3.40683999e-11
 3.40683999e-11
 3.40683999e-11
 3.40683999e-11
 3.40683999e-11
 3.40683999e-11
 3.40683999e-11
 3.40683999e-11
 3.40683999e-11
 3.40683999e-11
 3.40683999e-11
 3.40683999e-11
 3.40683999e-11
 3.40683999e-11
 3.40683999e-11
 3.40683999e-11
 3.40683999e-11
 3.40683999e-11
 3.40683999e-11
 3.40683999e-11
 3.40683999e-11
 3.40683999e-11
 3.40683999e-11
 3.40683999e-11
 5.98422276e-06
 5.98422276e-06
 5.98422276e-06
 5.98422276e-06
 5.98422276e-06
 5.98422276e-06
 5.98422276e-06
 5.98422276e-06
 5.98422276e-06
 5.98422276e-06
 5.98422276e-06
 5.98422276e-06
 5.98422276e-06
 3.83791895e-06
 3.83791895e-06
 3.83791895e-06
 3.83791895e-06
 3.83791895e-06
 3.83791895e-06
 3.83791895e-06
 3.83791895e-06
 6.31523110e-07
 6.31523110e-07
 6.31523110e-07
 6.31523110e-07
 6.31523110e-07
 6.31523110e-07
 6.31523110e-07
 6.31523110e-07
 6.31523110e-07
 6.31523110e-07
 6.31523110e-07
 6.31523110e-07
 6.31523110e-07
 6.31523110e-07
 4.71806139e-07
 4.71806139e-07
 4.71806139e-07
 4.71806139e-07
 4.71806139e-07
 4.71806139e-07
 4.71806139e-07
 4.71806139e-07
 4.71806139e-07
 4.71806139e-07
 2.06463109e-06
 2.06463109e-06
 2.06463109e-06
 2.06463109e-06
 2.07089446e-06
 2.07089446e-06
 2.79621726e-06
 2.79621726e-06
 2.79621726e-06
 1.49486943e-06
 1.49486943e-06
 1.99558713e-06
 1.99558713e-06
 1.56371569e-06
)
)
1
(
101
(
 1.67108167e-11
 1.67108167e-11
 1.67108167e-11
 3.40683999e-11
 3.40683999e-11
 3.40683999e-11
 3.40683999e-11
 3.40683999e-11
 3.40683999e-11
 3.40683999e-11
 3.40683999e-11
 3.40683999e-11
 3.40683999e-11
 3.40683999e-11
 3.40683999e-11
 3.40683999e-11
 3.40683999e-11
 3.40683999e-11
 3.40683999e-11
 3.40683999e-11
 3.40683999e-11
 3.40683999e-11
 3.40683999e-11
 3.40683999e-11
 3.40683999e-11
 3.40683999e-11
 3.40683999e-11
 3.40683999e-11
 3.40683999e-11
 3.40683999e-11
 3.40683999e-11
 3.40683999e-11
 3.40683999e-11
 3.40683999e-11
 3.40683999e-11
 3.40683999e-11
 3.40683999e-11
 3.40683999e-11
 3.40683999e-11
 3.40683999e-11
 3.40683999e-11
 9.99830248e-06
 5.98422276e-06
 5.98422276e-06
 5.98422276e-06
 5.98422276e-06
 5.98422276e-06
 5.98422276e-06
 5.98422276e-06
 5.98422276e-06
 5.98422276e-06
 5.98422276e-06
 5.98422276e-06
 5.98422276e-06
 5.98422276e-06
 5.98422276e-06
 3.83791895e-06
 3.83791895e-06
 3.83791895e-06
 3.83791895e-06
 3.83791895e-06
 3.83791895e-06
 3.83791895e-06
 3.83791895e-06
 3.83791895e-06
 6.31523110e-07
 6.31523110e-07
 6.31523110e-07
 6.31523110e-07
 6.31523110e-07
 6.31523110e-07
 6.31523110e-07
 6.31523110e-07
 6.31523110e-07
 6.31523110e-07
 6.31523110e-07
 6.31523110e-07
 6.31523110e-07
 4.71806139e-07
 4.71806139e-07
 4.71806139e-07
 4.71806139e-07
 4.71806139e-07
 4.71806139e-07
 4.71806139e-07
 4.71806139e-07
 4.71806139e-07
 4.71806139e-07
 2.06463109e-06
 2.06463109e-06
 2.06463109e-06
 2.06463109e-06
 2.07089446e-06
 2.07089446e-06
 2.79621726e-06
 2.79621726e-06
 2.79621726e-06
 2.79621726e-06
 1.49486943e-06
 1.99558713e-06
 1.99558713e-06
)
)
1
(
101
(
 1.10420479e-11
 1.10420479e-11
 3.40683999e-11
 3.40683999e-11
 3.40683999e-11
 3.40683999e-11
 3.40683999e-11
 3.40683999e-11
 3.40683999e-11
 3.40683999e-11
 3.40683999e-11
 3.40683999e-11
 3.40683999e-11
 3.40683999e-11
 3.40683999e-11
 3.40683999e-11
 3.40683999e-11
 3.40683999e-11
 3.40683999e-11
 3.40683999e-11
 3.40683999e-11
 3.40683999e-11
 3.40683999e-11
 3.40683999e-11
 3.40683999e-11
 3.40683999e-11
 3.40683999e-11
 3.40683999e-11
 3.40683999e-11
 3.40683999e-11
 3.40683999e-11
 3.40683999e-11
 3.40683999e-11
 3.40683999e-11
 3.40683999e-11
 3.40683999e-11
 3.40683999e-11
 3.40683999e-11
 3.40683999e-11
 3.40683999e-11
 3.40683999e-11
 9.99830248e-06
 9.99830248e-06
 5.98422276e-06
 5.98422276e-06
 5.98422276e-06
 5.98422276e-06
 5.98422276e-06
 5.98422276e-06
 5.98422276e-06
 5.98422276e-06
 5.98422276e-06
 5.98422276e-06
 5.98422276e-06
 5.98422276e-06
 5.98422276e-06
 5.98422276e-06
 3.83791895e-06
 3.83791895e-06
 3.83791895e-06
 3.83791895e-06
 3.83791895e-06
 3.83791895e-06
 3.83791895e-06
 3.83791895e-06
 3.83791895e-06
 6.31523110e-07
 6.31523110e-07
 6.31523110e-07
 6.31523110e-07
 6.31523110e-07
 6.31523110e-07
 6.31523110e-07
 6.31523110e-07
 6.31523110e-07
 6.31523110e-07
 6.31523110e-07
 6.31523110e-07
 6.31523110e-07
 6.31523110e-07
 4.71806139e-07
 4.71806139e-07
 4.71806139e-07
 4.71806139e-07
 4.71806139e-07
 4.71806139e-07
 4.71806139e-07
 4.71806139e-07
 3.00579497e-06
 2.06463109e-06
 2.06463109e-06
 2.06463109e-06
 4.88190337e-06
 4.88190337e-06
 4.88190337e-06
 2.79621726e-06
 2.79621726e-06
 2.79621726e-06
 2.79621726e-06
 2.79621726e-06
 1.99558713e-06
)
)
1
(
101
(
 8.52143614e-14
 3.40683999e-11
 3.40683999e-11
 3.40683999e-11
 3.40683999e-11
 3.40683999e-11
 3.40683999e-11
 3.40683999e-11
 3.40683999e-11
 3.40683999e-11
 3.40683999e-11
 3.40683999e-11
 3.40683999e-11
 3.40683999e-11
 3.40683999e-11
 3.40683999e-11
 3.40683999e-11
 3.40683999e-11
 3.40683999e-11
 3.40683999e-11
 3.40683999e-11
 3.40683999e-11
 3.40683999e-11
 3.40683999e-11
 3.40683999e-11
 3.40683999e-11
 3.40683999e-11
 3.40683999e-11
 3.40683999e-11
 3.40683999e-11
 3.40683999e-11
 3.40683999e-11
 3.40683999e-11
 3.40683999e-11
 3.40683999e-11
 3.40683999e-11
 3.40683999e-11
 3.40683999e-11
 3.40683999e-11
 3.40683999e-11
 9.99830248e-06
 9.99830248e-06
 9.99830248e-06
 9.99830248e-06
 5.98422276e-06
 5.98422276e-06
 5.98422276e-06
 5.98422276e-06
 5.98422276e-06
 5.98422276e-06
 5.98422276e-06
 5.98422276e-06
 5.98422276e-06
 5.98422276e-06
 5.98422276e-06
 5.98422276e-06
 5.98422276e-06
 5.98422276e-06
 3.83791895e-06
 3.83791895e-06
 3.83791895e-06
 3.83791895e-06
 3.83791895e-06
 3.83791895e-06
 3.83791895e-06
 3.83791895e-06
 3.83791895e-06
 3.83791895e-06
 6.31523110e-07
 6.31523110e-07
 6.31523110e-07
 6.31523110e-07
 6.31523110e-07
 6.31523110e-07
 6.31523110e-07
 6.31523110e-07
 6.31523110e-07
 6.31523110e-07
 6.31523110e-07
 6.31523110e-07
 6.31523110e-07
 2.07438220e-06
 4.71806139e-07
 4.71806139e-07
 4.71806139e-07
 4.71806139e-07
 4.71806139e-07
 4.71806139e-07
 4.71806139e-07
 3.00579497e-06
 3.00579497e-06
 3.40765116e-06
 3.40765116e-06
 4.88190337e-06
 4.88190337e-06
 4.88190337e-06
 4.88190337e-06
 2.79621726e-06
 2.79621726e-06
 2.79621726e-06
 2.79621726e-06
)
)
1
(
101
(
 8.52143614e-14
 1.89771637e-11
 1.89771637e-11
 1.89771637e-11
 1.89771637e-11
 1.89771637e-11
 1.89771637e-11
 1.89771637e-11
 1.89771637e-11
 1.89771637e-11
 1.89771637e-11
 1.89771637e-11
 1.89771637e-11
 1.89771637e-11
 1.89771637e-11
 1.89771637e-11
 1.89771637e-11
 1.89771637e-11
 1.89771637e-11
 1.89771637e-11
 1.89771637e-11
 1.89771637e-11
 1.89771637e-11
 1.89771637e-11
 1.89771637e-11
 1.89771637e-11
 1.89771637e-11
 1.89771637e-11
 1.89771637e-11
 1.89771637e-11
 1.89771637e-11
 1.89771637e-11
 1.89771637e-11
 1.89771637e-11
 1.89771637e-11
 1.89771637e-11
 1.89771637e-11
 1.89771637e-11
 1.89771637e-11
 1.89771637e-11
 9.99830248e-06
 9.99830248e-06
 9.99830248e-06
 9.99830248e-06
 9.99830248e-06
 5.98422276e-06
 5.98422276e-06
 5.98422276e-06
 5.98422276e-06
 5.98422276e-06
 5.98422276e-06
 5.98422276e-06
 5.98422276e-06
 5.98422276e-06
 5.98422276e-06
 5.98422276e-06
 5.98422276e-06
 5.98422276e-06
 5.98422276e-06
 3.83791895e-06
 3.83791895e-06
 3.83791895e-06
 3.83791895e-06
 3.83791895e-06
 3.83791895e-06
 3.83791895e-06
 3.83791895e-06
 3.83791895e-06
 3.83791895e-06
 6.31523110e-07
 6.31523110e-07
 6.31523110e-07
 6.31523110e-07
 6.31523110e-07
 6.31523110e-07
 6.31523110e-07
 6.31523110e-07
 6.31523110e-07
 6.31523110e-07
 6.31523110e-07
 6.31523110e-07
 6.31523110e-07
 2.07438220e-06
 2.07438220e-06
 4.71806139e-07
 4.71806139e-07
 4.71806139e-07
 4.71806139e-07
 4.71806139e-07
 3.00579497e-06
 3.00579497e-06
 3.00579497e-06
 3.40765116e-06
 3.40765116e-06
 4.88190337e-06
 4.88190337e-06
 4.88190337e-06
 4.88190337e-06
 4.88190337e-06
 2.79621726e-06
 2.79621726e-06
)
)
1
(
101
(
 2.35072632e-11
 2.35072632e-11
 2.35072632e-11
 2.35072632e-11
 2.35072632e-11
 2.35072632e-11
 2.35072632e-11
 2.35072632e-11
 2.35072632e-11
 2.35072632e-11
 2.35072632e-11
 2.35072632e-11
 2.35072632e-11
 2.35072632e-11
 2.35072632e-11
 2.35072632e-11
 2.35072632e-11
 2.35072632e-11
 2.35072632e-11
 2.35072632e-11
 2.35072632e-11
 2.35072632e-11
 2.35072632e-11
 2.35072632e-11
 2.35072632e-11
 2.35072632e-11
 2.35072632e-11
 2.35072632e-11
 2.35072632e-11
 2.35072632e-11
 2.35072632e-11
 2.35072632e-11
 2.35072632e-11
 2.35072632e-11
 2.35072632e-11
 2.35072632e-11
 2.35072632e-11
 2.35072632e-11
 2.35072632e-11
 2.35072632e-11
 9.99830248e-06
 9.99830248e-06
 9.99830248e-06
 9.99830248e-06
 9.99830248e-06
 9.99830248e-06
 5.98422276e-06
 5.98422276e-06
 5.98422276e-06
 5.98422276e-06
 5.98422276e-06
 5.98422276e-06
 5.98422276e-06
 5.98422276e-06
 5.98422276e-06
 5.98422276e-06
 5.98422276e-06
 5.98422276e-06
 5.98422276e-06
 5.98422276e-06
 5.98422276e-06
 3.83791895e-06
 3.83791895e-06
 3.83791895e-06
 3.83791895e-06
 3.83791895e-06
 3.83791895e-06
 3.83791895e-06
 3.83791895e-06
 3.83791895e-06
 3.83791895e-06
 6.31523110e-07
 6.31523110e-07
 6.31523110e-07
 6.31523110e-07
 6.31523110e-07
 6.31523110e-07
 6.31523110e-07
 6.31523110e-07
 6.31523110e-07
 6.31523110e-07
 6.31523110e-07
 6.31523110e-07
 2.07438220e-06
 2.07438220e-06
 2.07438220e-06
 4.71806139e-07
 4.71806139e-07
 4.71806139e-07
 4.71806139e-07
 3.00579497e-06
 3.00579497e-06
 3.00579497e-06
 3.40765116e-06
 3.40765116e-06
 4.88190337e-06
 4.88190337e-06
 4.88190337e-06
 4.88190337e-06
 4.88190337e-06
 4.88190337e-06
)
)
1
(
101
(
 2.66077776e-11
 2.66077776e-11
 2.66077776e-11
 2.66077776e-11
 2.66077776e-11
 2.66077776e-11
 2.66077776e-11
 2.66077776e-11
 2.66077776e-11
 2.66077776e-11
 2.66077776e-11
 2.66077776e-11
 2.66077776e-11
 2.66077776e-11
 2.66077776e-11
 2.66077776e-11
 2.66077776e-11
 2.66077776e-11
 2.66077776e-11
 2.66077776e-11
 2.66077776e-11
 2.66077776e-11
 2.66077776e-11
 2.66077776e-11
 2.66077776e-11
 2.66077776e-11
 2.66077776e-11
 2.66077776e-11
 2.66077776e-11
 2.66077776e-11
 2.66077776e-11
 2.66077776e-11
 2.66077776e-11
 2.66077776e-11
 2.66077776e-11
 2.66077776e-11
 2.66077776e-11
 2.66077776e-11
 2.66077776e-11
 9.99830248e-06
 9.99830248e-06
 9.99830248e-06
 9.99830248e-06
 9.99830248e-06
 9.99830248e-06
 9.99830248e-06
 9.99830248e-06
 9.99830248e-06
 5.98422276e-06
 5.98422276e-06
 5.98422276e-06
 5.98422276e-06
 5.98422276e-06
 5.98422276e-06
 5.98422276e-06
 5.98422276e-06
 5.98422276e-06
 5.98422276e-06
 5.98422276e-06
 5.98422276e-06
 5.98422276e-06
 5.98422276e-06
 3.83791895e-06
 3.83791895e-06
 3.83791895e-06
 3.83791895e-06
 3.83791895e-06
 3.83791895e-06
 3.83791895e-06
 3.83791895e-06
 3.83791895e-06
 3.83791895e-06
 6.31523110e-07
 6.31523110e-07
 6.31523110e-07
 6.31523110e-07
 6.31523110e-07
 6.31523110e-07
 6.31523110e-07
 6.31523110e-07
 6.31523110e-07
 6.31523110e-07
 6.31523110e-07
 6.31523110e-07
 2.07438220e-06
 2.07438220e-06
 2.07438220e-06
 2.07438220e-06
 3.36657513e-06
 3.36657513e-06
 3.36657513e-06
 3.00579497e-06
 3.00579497e-06
 3.00579497e-06
 3.40765116e-06
 3.40765116e-06
 4.88190337e-06
 4.88190337e-06
 4.88190337e-06