/*--------------------------------*- C++ -*----------------------------------*\
| =========                 |                                                 |
| \\      /  F ield        | OpenFOAM: The Open Source CFD Toolbox           |
|  \\    /   O peration    | Version:  7                                     |
|   \\  /    A nd          | Web:      http://www.OpenFOAM.com               |
|    \\/     M anipulation |                                                 |
\*---------------------------------------------------------------------------*/

FoamFile
{
    version     2.0;
    format      ascii;
    class       dictionary;
    object      Y_NH_table;
}

Y_NH_table
2
(
101
(
1
(
101
(
 3.38521648e-18
 3.38521648e-18
 3.38521648e-18
 3.38521648e-18
 3.38521648e-18
 3.38521648e-18
 3.38521648e-18
 3.38521648e-18
 3.38521648e-18
 3.38521648e-18
 3.38521648e-18
 3.38521648e-18
 3.38521648e-18
 3.38521648e-18
 3.38521648e-18
 3.38521648e-18
 3.38521648e-18
 3.38521648e-18
 3.38521648e-18
 3.38521648e-18
 3.38521648e-18
 3.38521648e-18
 3.38521648e-18
 3.38521648e-18
 3.38521648e-18
 3.38521648e-18
 3.38521648e-18
 3.38521648e-18
 3.38521648e-18
 3.38521648e-18
 3.38521648e-18
 3.38521648e-18
 3.38521648e-18
 3.38521648e-18
 3.38521648e-18
 3.38521648e-18
 3.38521648e-18
 3.38521648e-18
 3.38521648e-18
 3.38521648e-18
 3.38521648e-18
 3.38521648e-18
 3.38521648e-18
 3.38521648e-18
 3.38521648e-18
 2.54671700e-12
 2.54671700e-12
 1.23506024e-11
 1.23506024e-11
 1.23506024e-11
 1.23506024e-11
 1.23506024e-11
 1.23506024e-11
 1.23506024e-11
 1.23506024e-11
 1.23506024e-11
 1.23506024e-11
 1.23506024e-11
 1.23506024e-11
 1.23506024e-11
 1.23506024e-11
 1.23506024e-11
 1.23506024e-11
 8.33995527e-12
 8.33995527e-12
 8.33995527e-12
 8.33995527e-12
 8.33995527e-12
 8.33995527e-12
 8.33995527e-12
 8.33995527e-12
 8.33995527e-12
 8.33995527e-12
 8.33995527e-12
 8.33995527e-12
 3.05431317e-13
 3.05431317e-13
 3.05431317e-13
 3.05431317e-13
 3.05431317e-13
 3.05431317e-13
 3.05431317e-13
 4.37670241e-13
 4.37670241e-13
 4.37670241e-13
 4.37670241e-13
 4.37670241e-13
 4.37670241e-13
 2.85381613e-13
 2.85381613e-13
 2.85381613e-13
 2.85381613e-13
 2.85381613e-13
 2.85381613e-13
 2.85381613e-13
 9.25722770e-14
 9.25722770e-14
 9.25722770e-14
 9.25722770e-14
 9.25722770e-14
 1.29724662e-14
)
)
1
(
101
(
 4.34240164e-16
 4.34240164e-16
 4.34240164e-16
 4.34240164e-16
 4.34240164e-16
 4.34240164e-16
 4.34240164e-16
 4.34240164e-16
 4.34240164e-16
 4.34240164e-16
 4.34240164e-16
 4.34240164e-16
 4.34240164e-16
 4.34240164e-16
 4.34240164e-16
 4.34240164e-16
 4.34240164e-16
 4.34240164e-16
 4.34240164e-16
 4.34240164e-16
 4.34240164e-16
 4.34240164e-16
 4.34240164e-16
 4.34240164e-16
 4.34240164e-16
 4.34240164e-16
 4.34240164e-16
 4.34240164e-16
 4.34240164e-16
 4.34240164e-16
 4.34240164e-16
 4.34240164e-16
 4.34240164e-16
 4.34240164e-16
 4.34240164e-16
 4.34240164e-16
 4.34240164e-16
 4.34240164e-16
 4.34240164e-16
 4.34240164e-16
 4.34240164e-16
 4.34240164e-16
 4.34240164e-16
 4.34240164e-16
 4.34240164e-16
 2.54671700e-12
 2.54671700e-12
 2.54671700e-12
 1.23506024e-11
 1.23506024e-11
 1.23506024e-11
 1.23506024e-11
 1.23506024e-11
 1.23506024e-11
 1.23506024e-11
 1.23506024e-11
 1.23506024e-11
 1.23506024e-11
 1.23506024e-11
 1.23506024e-11
 1.23506024e-11
 1.23506024e-11
 1.23506024e-11
 1.23506024e-11
 1.23506024e-11
 8.33995527e-12
 8.33995527e-12
 8.33995527e-12
 8.33995527e-12
 8.33995527e-12
 8.33995527e-12
 8.33995527e-12
 8.33995527e-12
 8.33995527e-12
 8.33995527e-12
 8.33995527e-12
 8.33995527e-12
 3.05431317e-13
 3.05431317e-13
 3.05431317e-13
 3.05431317e-13
 3.05431317e-13
 3.05431317e-13
 4.37670241e-13
 4.37670241e-13
 4.37670241e-13
 4.37670241e-13
 4.37670241e-13
 4.37670241e-13
 4.37670241e-13
 2.85381613e-13
 2.85381613e-13
 2.85381613e-13
 2.85381613e-13
 2.85381613e-13
 2.85381613e-13
 1.65524815e-13
 9.25722770e-14
 9.25722770e-14
 9.25722770e-14
 2.53863263e-14
)
)
1
(
101
(
 1.98571961e-15
 1.98571961e-15
 1.98571961e-15
 1.98571961e-15
 1.98571961e-15
 1.98571961e-15
 1.98571961e-15
 1.98571961e-15
 1.98571961e-15
 1.98571961e-15
 1.98571961e-15
 1.98571961e-15
 1.98571961e-15
 1.98571961e-15
 1.98571961e-15
 1.98571961e-15
 1.98571961e-15
 1.98571961e-15
 1.98571961e-15
 1.98571961e-15
 1.98571961e-15
 1.98571961e-15
 1.98571961e-15
 1.98571961e-15
 1.98571961e-15
 1.98571961e-15
 1.98571961e-15
 1.98571961e-15
 1.98571961e-15
 1.98571961e-15
 1.98571961e-15
 1.98571961e-15
 1.98571961e-15
 1.98571961e-15
 1.98571961e-15
 1.98571961e-15
 1.98571961e-15
 1.98571961e-15
 1.98571961e-15
 1.98571961e-15
 1.98571961e-15
 1.98571961e-15
 1.98571961e-15
 1.98571961e-15
 2.54671700e-12
 2.54671700e-12
 2.54671700e-12
 2.54671700e-12
 2.54671700e-12
 2.54671700e-12
 1.23506024e-11
 1.23506024e-11
 1.23506024e-11
 1.23506024e-11
 1.23506024e-11
 1.23506024e-11
 1.23506024e-11
 1.23506024e-11
 1.23506024e-11
 1.23506024e-11
 1.23506024e-11
 1.23506024e-11
 1.23506024e-11
 1.23506024e-11
 1.23506024e-11
 1.23506024e-11
 8.33995527e-12
 8.33995527e-12
 8.33995527e-12
 8.33995527e-12
 8.33995527e-12
 8.33995527e-12
 8.33995527e-12
 8.33995527e-12
 8.33995527e-12
 8.33995527e-12
 8.33995527e-12
 8.33995527e-12
 3.05431317e-13
 3.05431317e-13
 3.05431317e-13
 3.05431317e-13
 3.05431317e-13
 3.05431317e-13
 3.05431317e-13
 4.37670241e-13
 4.37670241e-13
 4.37670241e-13
 4.37670241e-13
 4.37670241e-13
 4.37670241e-13
 2.85381613e-13
 2.85381613e-13
 2.85381613e-13
 2.85381613e-13
 2.85381613e-13
 2.85381613e-13
 1.65524815e-13
 1.65524815e-13
 5.80741583e-14
 5.80741583e-14
)
)
1
(
101
(
 3.80472253e-15
 3.80472253e-15
 3.80472253e-15
 3.80472253e-15
 3.80472253e-15
 3.80472253e-15
 3.80472253e-15
 3.80472253e-15
 3.80472253e-15
 3.80472253e-15
 3.80472253e-15
 3.80472253e-15
 3.80472253e-15
 3.80472253e-15
 3.80472253e-15
 3.80472253e-15
 3.80472253e-15
 3.80472253e-15
 3.80472253e-15
 3.80472253e-15
 3.80472253e-15
 3.80472253e-15
 3.80472253e-15
 3.80472253e-15
 3.80472253e-15
 3.80472253e-15
 3.80472253e-15
 3.80472253e-15
 3.80472253e-15
 3.80472253e-15
 3.80472253e-15
 3.80472253e-15
 3.80472253e-15
 3.80472253e-15
 3.80472253e-15
 3.80472253e-15
 3.80472253e-15
 3.80472253e-15
 3.80472253e-15
 3.80472253e-15
 3.80472253e-15
 3.80472253e-15
 3.80472253e-15
 3.80472253e-15
 3.91729678e-12
 2.54671700e-12
 2.54671700e-12
 2.54671700e-12
 2.54671700e-12
 2.54671700e-12
 2.54671700e-12
 1.23506024e-11
 1.23506024e-11
 1.23506024e-11
 1.23506024e-11
 1.23506024e-11
 1.23506024e-11
 1.23506024e-11
 1.23506024e-11
 1.23506024e-11
 1.23506024e-11
 1.23506024e-11
 1.23506024e-11
 1.23506024e-11
 1.23506024e-11
 1.23506024e-11
 1.23506024e-11
 8.33995527e-12
 8.33995527e-12
 8.33995527e-12
 8.33995527e-12
 8.33995527e-12
 8.33995527e-12
 8.33995527e-12
 8.33995527e-12
 8.33995527e-12
 8.33995527e-12
 8.33995527e-12
 8.33995527e-12
 7.10507537e-13
 3.05431317e-13
 3.05431317e-13
 3.05431317e-13
 3.05431317e-13
 3.05431317e-13
 3.05431317e-13
 4.37670241e-13
 4.37670241e-13
 4.37670241e-13
 4.37670241e-13
 4.37670241e-13
 4.37670241e-13
 4.37670241e-13
 2.85381613e-13
 2.85381613e-13
 2.85381613e-13
 2.85381613e-13
 2.85381613e-13
 1.65524815e-13
 2.86801480e-16
 2.86801480e-16
)
)
1
(
101
(
 9.46888874e-15
 9.46888874e-15
 9.46888874e-15
 9.46888874e-15
 9.46888874e-15
 9.46888874e-15
 9.46888874e-15
 9.46888874e-15
 9.46888874e-15
 9.46888874e-15
 9.46888874e-15
 9.46888874e-15
 9.46888874e-15
 9.46888874e-15
 9.46888874e-15
 9.46888874e-15
 9.46888874e-15
 9.46888874e-15
 9.46888874e-15
 9.46888874e-15
 9.46888874e-15
 9.46888874e-15
 9.46888874e-15
 9.46888874e-15
 9.46888874e-15
 9.46888874e-15
 9.46888874e-15
 9.46888874e-15
 9.46888874e-15
 9.46888874e-15
 9.46888874e-15
 9.46888874e-15
 9.46888874e-15
 9.46888874e-15
 9.46888874e-15
 9.46888874e-15
 9.46888874e-15
 9.46888874e-15
 9.46888874e-15
 9.46888874e-15
 9.46888874e-15
 9.46888874e-15
 9.46888874e-15
 9.46888874e-15
 3.91729678e-12
 3.91729678e-12
 3.91729678e-12
 2.54671700e-12
 2.54671700e-12
 2.54671700e-12
 2.54671700e-12
 2.54671700e-12
 2.54671700e-12
 1.23506024e-11
 1.23506024e-11
 1.23506024e-11
 1.23506024e-11
 1.23506024e-11
 1.23506024e-11
 1.23506024e-11
 1.23506024e-11
 1.23506024e-11
 1.23506024e-11
 1.23506024e-11
 1.23506024e-11
 1.23506024e-11
 1.23506024e-11
 1.23506024e-11
 8.33995527e-12
 8.33995527e-12
 8.33995527e-12
 8.33995527e-12
 8.33995527e-12
 8.33995527e-12
 8.33995527e-12
 8.33995527e-12
 8.33995527e-12
 8.33995527e-12
 8.33995527e-12
 8.33995527e-12
 7.10507537e-13
 3.05431317e-13
 3.05431317e-13
 3.05431317e-13
 3.05431317e-13
 3.05431317e-13
 3.05431317e-13
 3.05431317e-13
 4.37670241e-13
 4.37670241e-13
 4.37670241e-13
 4.37670241e-13
 4.37670241e-13
 4.37670241e-13
 3.53055904e-13
 2.85381613e-13
 2.85381613e-13
 2.85381613e-13
 4.17367460e-14
 4.17367460e-14
 2.86801480e-16
)
)
1
(
101
(
 1.59458322e-14
 1.59458322e-14
 1.59458322e-14
 1.59458322e-14
 1.59458322e-14
 1.59458322e-14
 1.59458322e-14
 1.59458322e-14
 1.59458322e-14
 1.59458322e-14
 1.59458322e-14
 1.59458322e-14
 1.59458322e-14
 1.59458322e-14
 1.59458322e-14
 1.59458322e-14
 1.59458322e-14
 1.59458322e-14
 1.59458322e-14
 1.59458322e-14
 1.59458322e-14
 1.59458322e-14
 1.59458322e-14
 1.59458322e-14
 1.59458322e-14
 1.59458322e-14
 1.59458322e-14
 1.59458322e-14
 1.59458322e-14
 1.59458322e-14
 1.59458322e-14
 1.59458322e-14
 1.59458322e-14
 1.59458322e-14
 1.59458322e-14
 1.59458322e-14
 1.59458322e-14
 1.59458322e-14
 1.59458322e-14
 1.59458322e-14
 1.59458322e-14
 1.59458322e-14
 1.31797605e-12
 3.91729678e-12
 3.91729678e-12
 3.91729678e-12
 3.91729678e-12
 3.91729678e-12
 2.54671700e-12
 2.54671700e-12
 2.54671700e-12
 2.54671700e-12
 2.54671700e-12
 2.54671700e-12
 1.23506024e-11
 1.23506024e-11
 1.23506024e-11
 1.23506024e-11
 1.23506024e-11
 1.23506024e-11
 1.23506024e-11
 1.23506024e-11
 1.23506024e-11
 1.23506024e-11
 1.23506024e-11
 1.23506024e-11
 1.23506024e-11
 1.23506024e-11
 1.23506024e-11
 1.23506024e-11
 8.33995527e-12
 8.33995527e-12
 8.33995527e-12
 8.33995527e-12
 8.33995527e-12
 8.33995527e-12
 8.33995527e-12
 8.33995527e-12
 8.33995527e-12
 8.33995527e-12
 8.33995527e-12
 7.10507537e-13
 7.10507537e-13
 3.05431317e-13
 3.05431317e-13
 3.05431317e-13
 3.05431317e-13
 3.05431317e-13
 3.05431317e-13
 4.37670241e-13
 4.37670241e-13
 4.37670241e-13
 4.37670241e-13
 4.37670241e-13
 4.37670241e-13
 3.53055904e-13
 3.53055904e-13
 1.20858183e-13
 1.20858183e-13
 4.17367460e-14
 4.17367460e-14
)
)
1
(
101
(
 3.03867857e-14
 3.03867857e-14
 3.03867857e-14
 3.03867857e-14
 3.03867857e-14
 3.03867857e-14
 3.03867857e-14
 3.03867857e-14
 3.03867857e-14
 3.03867857e-14
 3.03867857e-14
 3.03867857e-14
 3.03867857e-14
 3.03867857e-14
 3.03867857e-14
 3.03867857e-14
 3.03867857e-14
 3.03867857e-14
 3.03867857e-14
 3.03867857e-14
 3.03867857e-14
 3.03867857e-14
 3.03867857e-14
 3.03867857e-14
 3.03867857e-14
 3.03867857e-14
 3.03867857e-14
 3.03867857e-14
 3.03867857e-14
 3.03867857e-14
 3.03867857e-14
 3.03867857e-14
 3.03867857e-14
 1.31797605e-12
 1.31797605e-12
 1.31797605e-12
 1.31797605e-12
 1.31797605e-12
 1.31797605e-12
 1.31797605e-12
 1.31797605e-12
 1.31797605e-12
 1.31797605e-12
 3.91729678e-12
 3.91729678e-12
 3.91729678e-12
 3.91729678e-12
 3.91729678e-12
 3.91729678e-12
 2.54671700e-12
 2.54671700e-12
 2.54671700e-12
 2.54671700e-12
 2.54671700e-12
 2.54671700e-12
 2.54671700e-12
 1.23506024e-11
 1.23506024e-11
 1.23506024e-11
 1.23506024e-11
 1.23506024e-11
 1.23506024e-11
 1.23506024e-11
 1.23506024e-11
 1.23506024e-11
 1.23506024e-11
 1.23506024e-11
 1.23506024e-11
 1.23506024e-11
 1.23506024e-11
 1.23506024e-11
 8.33995527e-12
 8.33995527e-12
 8.33995527e-12
 8.33995527e-12
 8.33995527e-12
 8.33995527e-12
 8.33995527e-12
 8.33995527e-12
 8.33995527e-12
 8.33995527e-12
 8.33995527e-12
 7.10507537e-13
 7.10507537e-13
 3.05431317e-13
 3.05431317e-13
 3.05431317e-13
 3.05431317e-13
 3.05431317e-13
 3.05431317e-13
 3.05431317e-13
 4.37670241e-13
 4.37670241e-13
 4.37670241e-13
 4.37670241e-13
 4.37670241e-13
 3.53055904e-13
 3.53055904e-13
 1.20858183e-13
 1.20858183e-13
 4.17367460e-14
)
)
1
(
101
(
 5.54586204e-14
 5.54586204e-14
 5.54586204e-14
 5.54586204e-14
 5.54586204e-14
 5.54586204e-14
 5.54586204e-14
 5.54586204e-14
 5.54586204e-14
 5.54586204e-14
 5.54586204e-14
 5.54586204e-14
 5.54586204e-14
 5.54586204e-14
 5.54586204e-14
 5.54586204e-14
 5.54586204e-14
 5.54586204e-14
 5.54586204e-14
 5.54586204e-14
 5.54586204e-14
 5.54586204e-14
 5.54586204e-14
 5.54586204e-14
 5.54586204e-14
 5.54586204e-14
 1.31797605e-12
 1.31797605e-12
 1.31797605e-12
 1.31797605e-12
 1.31797605e-12
 1.31797605e-12
 1.31797605e-12
 1.31797605e-12
 1.31797605e-12
 1.31797605e-12
 1.31797605e-12
 1.31797605e-12
 1.31797605e-12
 1.31797605e-12
 1.31797605e-12
 1.31797605e-12
 1.31797605e-12
 3.91729678e-12
 3.91729678e-12
 3.91729678e-12
 3.91729678e-12
 3.91729678e-12
 3.91729678e-12
 3.91729678e-12
 2.54671700e-12
 2.54671700e-12
 2.54671700e-12
 2.54671700e-12
 2.54671700e-12
 2.54671700e-12
 2.54671700e-12
 1.23506024e-11
 1.23506024e-11
 1.23506024e-11
 1.23506024e-11
 1.23506024e-11
 1.23506024e-11
 1.23506024e-11
 1.23506024e-11
 1.23506024e-11
 1.23506024e-11
 1.23506024e-11
 1.23506024e-11
 1.23506024e-11
 1.23506024e-11
 1.23506024e-11
 8.33995527e-12
 8.33995527e-12
 8.33995527e-12
 8.33995527e-12
 8.33995527e-12
 8.33995527e-12
 8.33995527e-12
 8.33995527e-12
 8.33995527e-12
 8.33995527e-12
 8.33995527e-12
 7.10507537e-13
 7.10507537e-13
 7.10507537e-13
 3.05431317e-13
 3.05431317e-13
 3.05431317e-13
 3.05431317e-13
 3.05431317e-13
 3.05431317e-13
 5.49124056e-13
 4.37670241e-13
 4.37670241e-13
 4.37670241e-13
 7.32834953e-14
 7.32834953e-14
 7.32834953e-14
 1.20858183e-13
 1.20858183e-13
)
)
1
(
101
(
 7.49395547e-14
 7.49395547e-14
 7.49395547e-14
 7.49395547e-14
 7.49395547e-14
 7.49395547e-14
 7.49395547e-14
 7.49395547e-14
 7.49395547e-14
 7.49395547e-14
 7.49395547e-14
 7.49395547e-14
 7.49395547e-14
 7.49395547e-14
 7.49395547e-14
 7.49395547e-14
 7.49395547e-14
 7.49395547e-14
 7.49395547e-14
 1.31797605e-12
 1.31797605e-12
 1.31797605e-12
 1.31797605e-12
 1.31797605e-12
 1.31797605e-12
 1.31797605e-12
 1.31797605e-12
 1.31797605e-12
 1.31797605e-12
 1.31797605e-12
 1.31797605e-12
 1.31797605e-12
 1.31797605e-12
 1.31797605e-12
 1.31797605e-12
 1.31797605e-12
 1.31797605e-12
 1.31797605e-12
 1.31797605e-12
 1.31797605e-12
 1.31797605e-12
 1.31797605e-12
 3.91729678e-12
 3.91729678e-12
 3.91729678e-12
 3.91729678e-12
 3.91729678e-12
 3.91729678e-12
 3.91729678e-12
 3.91729678e-12
 3.91729678e-12
 2.54671700e-12
 2.54671700e-12
 2.54671700e-12
 2.54671700e-12
 2.54671700e-12
 2.54671700e-12
 2.54671700e-12
 2.54671700e-12
 1.23506024e-11
 1.23506024e-11
 1.23506024e-11
 1.23506024e-11
 1.23506024e-11
 1.23506024e-11
 1.23506024e-11
 1.23506024e-11
 1.23506024e-11
 1.23506024e-11
 1.23506024e-11
 1.23506024e-11
 1.23506024e-11
 1.23506024e-11
 8.33995527e-12
 8.33995527e-12
 8.33995527e-12
 8.33995527e-12
 8.33995527e-12
 8.33995527e-12
 8.33995527e-12
 8.33995527e-12
 8.33995527e-12
 8.33995527e-12
 8.33995527e-12
 7.10507537e-13
 7.10507537e-13
 7.10507537e-13
 3.05431317e-13
 3.05431317e-13
 3.05431317e-13
 3.05431317e-13
 3.05431317e-13
 3.05431317e-13
 5.49124056e-13
 5.49124056e-13
 1.00512720e-13
 1.00512720e-13
 7.32834953e-14
 7.32834953e-14
 7.32834953e-14
 7.32834953e-14
)
)
1
(
101
(
 1.37557375e-13
 1.37557375e-13
 1.37557375e-13
 1.37557375e-13
 1.37557375e-13
 1.37557375e-13
 1.37557375e-13
 1.37557375e-13
 1.37557375e-13
 1.37557375e-13
 1.37557375e-13
 1.37557375e-13
 1.37557375e-13
 1.37557375e-13
 1.31797605e-12
 1.31797605e-12
 1.31797605e-12
 1.31797605e-12
 1.31797605e-12
 1.31797605e-12
 1.31797605e-12
 1.31797605e-12
 1.31797605e-12
 1.31797605e-12
 1.31797605e-12
 1.31797605e-12
 1.31797605e-12
 1.31797605e-12
 1.31797605e-12
 1.31797605e-12
 1.31797605e-12
 1.31797605e-12
 1.31797605e-12
 1.31797605e-12
 1.31797605e-12
 1.31797605e-12
 1.31797605e-12
 1.31797605e-12
 1.31797605e-12
 1.31797605e-12
 1.31797605e-12
 1.31797605e-12
 3.91729678e-12
 3.91729678e-12
 3.91729678e-12
 3.91729678e-12
 3.91729678e-12
 3.91729678e-12
 3.91729678e-12
 3.91729678e-12
 3.91729678e-12
 3.91729678e-12
 2.54671700e-12
 2.54671700e-12
 2.54671700e-12
 2.54671700e-12
 2.54671700e-12
 2.54671700e-12
 2.54671700e-12
 2.54671700e-12
 1.23506024e-11
 1.23506024e-11
 1.23506024e-11
 1.23506024e-11
 1.23506024e-11
 1.23506024e-11
 1.23506024e-11
 1.23506024e-11
 1.23506024e-11
 1.23506024e-11
 1.23506024e-11
 1.23506024e-11
 1.23506024e-11
 1.23506024e-11
 1.23506024e-11
 8.33995527e-12
 8.33995527e-12
 8.33995527e-12
 8.33995527e-12
 8.33995527e-12
 8.33995527e-12
 8.33995527e-12
 8.33995527e-12
 8.33995527e-12
 8.33995527e-12
 7.10507537e-13
 7.10507537e-13
 7.10507537e-13
 7.10507537e-13
 3.05431317e-13
 3.05431317e-13
 3.05431317e-13
 3.05431317e-13
 3.05431317e-13
 5.49124056e-13
 5.49124056e-13
 1.00512720e-13
 1.00512720e-13
 7.32834953e-14
 7.32834953e-14
 7.32834953e-14
)
)
1
(
101
(
 1.91363625e-13
 1.91363625e-13
 1.91363625e-13
 1.91363625e-13
 1.91363625e-13
 1.91363625e-13
 1.91363625e-13
 1.91363625e-13
 1.91363625e-13
 1.31797605e-12
 1.31797605e-12
 1.31797605e-12
 1.31797605e-12
 1.31797605e-12
 1.31797605e-12
 1.31797605e-12
 1.31797605e-12
 1.31797605e-12
 1.31797605e-12
 1.31797605e-12
 1.31797605e-12
 1.31797605e-12
 1.31797605e-12
 1.31797605e-12
 1.31797605e-12
 1.31797605e-12
 1.31797605e-12
 1.31797605e-12
 1.31797605e-12
 1.31797605e-12
 1.31797605e-12
 1.31797605e-12
 1.31797605e-12
 1.31797605e-12
 1.31797605e-12
 1.31797605e-12
 1.31797605e-12
 1.31797605e-12
 1.31797605e-12
 1.31797605e-12
 1.31797605e-12
 1.31797605e-12
 3.91729678e-12
 3.91729678e-12
 3.91729678e-12
 3.91729678e-12
 3.91729678e-12
 3.91729678e-12
 3.91729678e-12
 3.91729678e-12
 3.91729678e-12
 3.91729678e-12
 3.91729678e-12
 3.91729678e-12
 2.54671700e-12
 2.54671700e-12
 2.54671700e-12
 2.54671700e-12
 2.54671700e-12
 2.54671700e-12
 2.54671700e-12
 2.54671700e-12
 1.23506024e-11
 1.23506024e-11
 1.23506024e-11
 1.23506024e-11
 1.23506024e-11
 1.23506024e-11
 1.23506024e-11
 1.23506024e-11
 1.23506024e-11
 1.23506024e-11
 1.23506024e-11
 1.23506024e-11
 1.23506024e-11
 1.23506024e-11
 8.33995527e-12
 8.33995527e-12
 8.33995527e-12
 8.33995527e-12
 8.33995527e-12
 8.33995527e-12
 8.33995527e-12
 8.33995527e-12
 8.33995527e-12
 8.33995527e-12
 7.10507537e-13
 7.10507537e-13
 7.10507537e-13
 7.10507537e-13
 3.00049778e-13
 3.05431317e-13
 3.05431317e-13
 3.05431317e-13
 3.05431317e-13
 5.49124056e-13
 5.49124056e-13
 1.00512720e-13
 1.00512720e-13
 7.32834953e-14
 7.32834953e-14
)
)
1
(
101
(
 2.56567808e-13
 2.56567808e-13
 2.56567808e-13
 2.56567808e-13
 2.56567808e-13
 2.56567808e-13
 1.31797605e-12
 1.31797605e-12
 1.31797605e-12
 1.31797605e-12
 1.31797605e-12
 1.31797605e-12
 1.31797605e-12
 1.31797605e-12
 1.31797605e-12
 1.31797605e-12
 1.31797605e-12
 1.31797605e-12
 1.31797605e-12
 1.31797605e-12
 1.31797605e-12
 1.31797605e-12
 1.31797605e-12
 1.31797605e-12
 1.31797605e-12
 1.31797605e-12
 1.31797605e-12
 1.31797605e-12
 1.31797605e-12
 1.31797605e-12
 1.31797605e-12
 1.31797605e-12
 1.31797605e-12
 1.31797605e-12
 1.31797605e-12
 1.31797605e-12
 1.31797605e-12
 1.31797605e-12
 1.31797605e-12
 1.31797605e-12
 1.31797605e-12
 1.31797605e-12
 3.91729678e-12
 3.91729678e-12
 3.91729678e-12
 3.91729678e-12
 3.91729678e-12
 3.91729678e-12
 3.91729678e-12
 3.91729678e-12
 3.91729678e-12
 3.91729678e-12
 3.91729678e-12
 3.91729678e-12
 3.91729678e-12
 2.54671700e-12
 2.54671700e-12
 2.54671700e-12
 2.54671700e-12
 2.54671700e-12
 2.54671700e-12
 2.54671700e-12
 2.54671700e-12
 1.23506024e-11
 1.23506024e-11
 1.23506024e-11
 1.23506024e-11
 1.23506024e-11
 1.23506024e-11
 1.23506024e-11
 1.23506024e-11
 1.23506024e-11
 1.23506024e-11
 1.23506024e-11
 1.23506024e-11
 1.23506024e-11
 1.23506024e-11
 8.33995527e-12
 8.33995527e-12
 8.33995527e-12
 8.33995527e-12
 8.33995527e-12
 8.33995527e-12
 8.33995527e-12
 8.33995527e-12
 8.33995527e-12
 8.33995527e-12
 7.10507537e-13
 7.10507537e-13
 7.10507537e-13
 7.10507537e-13
 3.00049778e-13
 3.00049778e-13
 1.99484608e-13
 1.99484608e-13
 1.99484608e-13
 5.49124056e-13
 5.49124056e-13
 1.00512720e-13
 1.00512720e-13
 7.32834953e-14
)
)
1
(
101
(
 3.90986579e-13
 3.90986579e-13
 3.90986579e-13
 1.31797605e-12
 1.31797605e-12
 1.31797605e-12
 1.31797605e-12
 1.31797605e-12
 1.31797605e-12
 1.31797605e-12
 1.31797605e-12
 1.31797605e-12
 1.31797605e-12
 1.31797605e-12
 1.31797605e-12
 1.31797605e-12
 1.31797605e-12
 1.31797605e-12
 1.31797605e-12
 1.31797605e-12
 1.31797605e-12
 1.31797605e-12
 1.31797605e-12
 1.31797605e-12
 1.31797605e-12
 1.31797605e-12
 1.31797605e-12
 1.31797605e-12
 1.31797605e-12
 1.31797605e-12
 1.31797605e-12
 1.31797605e-12
 1.31797605e-12
 1.31797605e-12
 1.31797605e-12
 1.31797605e-12
 1.31797605e-12
 1.31797605e-12
 1.31797605e-12
 1.31797605e-12
 1.31797605e-12
 3.16600530e-12
 3.91729678e-12
 3.91729678e-12
 3.91729678e-12
 3.91729678e-12
 3.91729678e-12
 3.91729678e-12
 3.91729678e-12
 3.91729678e-12
 3.91729678e-12
 3.91729678e-12
 3.91729678e-12
 3.91729678e-12
 3.91729678e-12
 3.91729678e-12
 2.54671700e-12
 2.54671700e-12
 2.54671700e-12
 2.54671700e-12
 2.54671700e-12
 2.54671700e-12
 2.54671700e-12
 2.54671700e-12
 2.54671700e-12
 1.23506024e-11
 1.23506024e-11
 1.23506024e-11
 1.23506024e-11
 1.23506024e-11
 1.23506024e-11
 1.23506024e-11
 1.23506024e-11
 1.23506024e-11
 1.23506024e-11
 1.23506024e-11
 1.23506024e-11
 1.23506024e-11
 8.33995527e-12
 8.33995527e-12
 8.33995527e-12
 8.33995527e-12
 8.33995527e-12
 8.33995527e-12
 8.33995527e-12
 8.33995527e-12
 8.33995527e-12
 8.33995527e-12
 7.10507537e-13
 7.10507537e-13
 7.10507537e-13
 7.10507537e-13
 3.00049778e-13
 3.00049778e-13
 1.99484608e-13
 1.99484608e-13
 1.99484608e-13
 1.99484608e-13
 5.49124056e-13
 1.00512720e-13
 1.00512720e-13
)
)
1
(
101
(
 3.33822434e-13
 3.33822434e-13
 1.31797605e-12
 1.31797605e-12
 1.31797605e-12
 1.31797605e-12
 1.31797605e-12
 1.31797605e-12
 1.31797605e-12
 1.31797605e-12
 1.31797605e-12
 1.31797605e-12
 1.31797605e-12
 1.31797605e-12
 1.31797605e-12
 1.31797605e-12
 1.31797605e-12
 1.31797605e-12
 1.31797605e-12
 1.31797605e-12
 1.31797605e-12
 1.31797605e-12
 1.31797605e-12
 1.31797605e-12
 1.31797605e-12
 1.31797605e-12
 1.31797605e-12
 1.31797605e-12
 1.31797605e-12
 1.31797605e-12
 1.31797605e-12
 1.31797605e-12
 1.31797605e-12
 1.31797605e-12
 1.31797605e-12
 1.31797605e-12
 1.31797605e-12
 1.31797605e-12
 1.31797605e-12
 1.31797605e-12
 1.31797605e-12
 3.16600530e-12
 3.16600530e-12
 3.91729678e-12
 3.91729678e-12
 3.91729678e-12
 3.91729678e-12
 3.91729678e-12
 3.91729678e-12
 3.91729678e-12
 3.91729678e-12
 3.91729678e-12
 3.91729678e-12
 3.91729678e-12
 3.91729678e-12
 3.91729678e-12
 3.91729678e-12
 2.54671700e-12
 2.54671700e-12
 2.54671700e-12
 2.54671700e-12
 2.54671700e-12
 2.54671700e-12
 2.54671700e-12
 2.54671700e-12
 2.54671700e-12
 1.23506024e-11
 1.23506024e-11
 1.23506024e-11
 1.23506024e-11
 1.23506024e-11
 1.23506024e-11
 1.23506024e-11
 1.23506024e-11
 1.23506024e-11
 1.23506024e-11
 1.23506024e-11
 1.23506024e-11
 1.23506024e-11
 1.23506024e-11
 8.33995527e-12
 8.33995527e-12
 8.33995527e-12
 8.33995527e-12
 8.33995527e-12
 8.33995527e-12
 8.33995527e-12
 8.33995527e-12
 4.64408669e-13
 7.10507537e-13
 7.10507537e-13
 7.10507537e-13
 4.54662913e-15
 4.54662913e-15
 4.54662913e-15
 1.99484608e-13
 1.99484608e-13
 1.99484608e-13
 1.99484608e-13
 1.99484608e-13
 1.00512720e-13
)
)
1
(
101
(
 5.61216879e-15
 1.31797605e-12
 1.31797605e-12
 1.31797605e-12
 1.31797605e-12
 1.31797605e-12
 1.31797605e-12
 1.31797605e-12
 1.31797605e-12
 1.31797605e-12
 1.31797605e-12
 1.31797605e-12
 1.31797605e-12
 1.31797605e-12
 1.31797605e-12
 1.31797605e-12
 1.31797605e-12
 1.31797605e-12
 1.31797605e-12
 1.31797605e-12
 1.31797605e-12
 1.31797605e-12
 1.31797605e-12
 1.31797605e-12
 1.31797605e-12
 1.31797605e-12
 1.31797605e-12
 1.31797605e-12
 1.31797605e-12
 1.31797605e-12
 1.31797605e-12
 1.31797605e-12
 1.31797605e-12
 1.31797605e-12
 1.31797605e-12
 1.31797605e-12
 1.31797605e-12
 1.31797605e-12
 1.31797605e-12
 1.31797605e-12
 3.16600530e-12
 3.16600530e-12
 3.16600530e-12
 3.16600530e-12
 3.91729678e-12
 3.91729678e-12
 3.91729678e-12
 3.91729678e-12
 3.91729678e-12
 3.91729678e-12
 3.91729678e-12
 3.91729678e-12
 3.91729678e-12
 3.91729678e-12
 3.91729678e-12
 3.91729678e-12
 3.91729678e-12
 3.91729678e-12
 2.54671700e-12
 2.54671700e-12
 2.54671700e-12
 2.54671700e-12
 2.54671700e-12
 2.54671700e-12
 2.54671700e-12
 2.54671700e-12
 2.54671700e-12
 2.54671700e-12
 1.23506024e-11
 1.23506024e-11
 1.23506024e-11
 1.23506024e-11
 1.23506024e-11
 1.23506024e-11
 1.23506024e-11
 1.23506024e-11
 1.23506024e-11
 1.23506024e-11
 1.23506024e-11
 1.23506024e-11
 1.23506024e-11
 1.28362618e-12
 8.33995527e-12
 8.33995527e-12
 8.33995527e-12
 8.33995527e-12
 8.33995527e-12
 8.33995527e-12
 8.33995527e-12
 4.64408669e-13
 4.64408669e-13
 6.43626452e-14
 6.43626452e-14
 4.54662913e-15
 4.54662913e-15
 4.54662913e-15
 4.54662913e-15
 1.99484608e-13
 1.99484608e-13
 1.99484608e-13
 1.99484608e-13
)
)
1
(
101
(
 5.61216879e-15
 8.98688403e-13
 8.98688403e-13
 8.98688403e-13
 8.98688403e-13
 8.98688403e-13
 8.98688403e-13
 8.98688403e-13
 8.98688403e-13
 8.98688403e-13
 8.98688403e-13
 8.98688403e-13
 8.98688403e-13
 8.98688403e-13
 8.98688403e-13
 8.98688403e-13
 8.98688403e-13
 8.98688403e-13
 8.98688403e-13
 8.98688403e-13
 8.98688403e-13
 8.98688403e-13
 8.98688403e-13
 8.98688403e-13
 8.98688403e-13
 8.98688403e-13
 8.98688403e-13
 8.98688403e-13
 8.98688403e-13
 8.98688403e-13
 8.98688403e-13
 8.98688403e-13
 8.98688403e-13
 8.98688403e-13
 8.98688403e-13
 8.98688403e-13
 8.98688403e-13
 8.98688403e-13
 8.98688403e-13
 8.98688403e-13
 3.16600530e-12
 3.16600530e-12
 3.16600530e-12
 3.16600530e-12
 3.16600530e-12
 3.91729678e-12
 3.91729678e-12
 3.91729678e-12
 3.91729678e-12
 3.91729678e-12
 3.91729678e-12
 3.91729678e-12
 3.91729678e-12
 3.91729678e-12
 3.91729678e-12
 3.91729678e-12
 3.91729678e-12
 3.91729678e-12
 3.91729678e-12
 2.54671700e-12
 2.54671700e-12
 2.54671700e-12
 2.54671700e-12
 2.54671700e-12
 2.54671700e-12
 2.54671700e-12
 2.54671700e-12
 2.54671700e-12
 2.54671700e-12
 1.23506024e-11
 1.23506024e-11
 1.23506024e-11
 1.23506024e-11
 1.23506024e-11
 1.23506024e-11
 1.23506024e-11
 1.23506024e-11
 1.23506024e-11
 1.23506024e-11
 1.23506024e-11
 1.23506024e-11
 1.23506024e-11
 1.28362618e-12
 1.28362618e-12
 8.33995527e-12
 8.33995527e-12
 8.33995527e-12
 8.33995527e-12
 8.33995527e-12
 4.64408669e-13
 4.64408669e-13
 4.64408669e-13
 6.43626452e-14
 6.43626452e-14
 4.54662913e-15
 4.54662913e-15
 4.54662913e-15
 4.54662913e-15
 4.54662913e-15
 1.99484608e-13
 1.99484608e-13
)
)
1
(
101
(
 1.39164225e-12
 1.39164225e-12
 1.39164225e-12
 1.39164225e-12
 1.39164225e-12
 1.39164225e-12
 1.39164225e-12
 1.39164225e-12
 1.39164225e-12
 1.39164225e-12
 1.39164225e-12
 1.39164225e-12
 1.39164225e-12
 1.39164225e-12
 1.39164225e-12
 1.39164225e-12
 1.39164225e-12
 1.39164225e-12
 1.39164225e-12
 1.39164225e-12
 1.39164225e-12
 1.39164225e-12
 1.39164225e-12
 1.39164225e-12
 1.39164225e-12
 1.39164225e-12
 1.39164225e-12
 1.39164225e-12
 1.39164225e-12
 1.39164225e-12
 1.39164225e-12
 1.39164225e-12
 1.39164225e-12
 1.39164225e-12
 1.39164225e-12
 1.39164225e-12
 1.39164225e-12
 1.39164225e-12
 1.39164225e-12
 1.39164225e-12
 3.16600530e-12
 3.16600530e-12
 3.16600530e-12
 3.16600530e-12
 3.16600530e-12
 3.16600530e-12
 3.91729678e-12
 3.91729678e-12
 3.91729678e-12
 3.91729678e-12
 3.91729678e-12
 3.91729678e-12
 3.91729678e-12
 3.91729678e-12
 3.91729678e-12
 3.91729678e-12
 3.91729678e-12
 3.91729678e-12
 3.91729678e-12
 3.91729678e-12
 3.91729678e-12
 2.54671700e-12
 2.54671700e-12
 2.54671700e-12
 2.54671700e-12
 2.54671700e-12
 2.54671700e-12
 2.54671700e-12
 2.54671700e-12
 2.54671700e-12
 2.54671700e-12
 1.23506024e-11
 1.23506024e-11
 1.23506024e-11
 1.23506024e-11
 1.23506024e-11
 1.23506024e-11
 1.23506024e-11
 1.23506024e-11
 1.23506024e-11
 1.23506024e-11
 1.23506024e-11
 1.23506024e-11
 1.28362618e-12
 1.28362618e-12
 1.28362618e-12
 8.33995527e-12
 8.33995527e-12
 8.33995527e-12
 8.33995527e-12
 4.64408669e-13
 4.64408669e-13
 4.64408669e-13
 6.43626452e-14
 6.43626452e-14
 4.54662913e-15
 4.54662913e-15
 4.54662913e-15
 4.54662913e-15
 4.54662913e-15
 4.54662913e-15
)
)
1
(
101
(
 1.97169615e-12
 1.97169615e-12
 1.97169615e-12
 1.97169615e-12
 1.97169615e-12
 1.97169615e-12
 1.97169615e-12
 1.97169615e-12
 1.97169615e-12
 1.97169615e-12
 1.97169615e-12
 1.97169615e-12
 1.97169615e-12
 1.97169615e-12
 1.97169615e-12
 1.97169615e-12
 1.97169615e-12
 1.97169615e-12
 1.97169615e-12
 1.97169615e-12
 1.97169615e-12
 1.97169615e-12
 1.97169615e-12
 1.97169615e-12
 1.97169615e-12
 1.97169615e-12
 1.97169615e-12
 1.97169615e-12
 1.97169615e-12
 1.97169615e-12
 1.97169615e-12
 1.97169615e-12
 1.97169615e-12
 1.97169615e-12
 1.97169615e-12
 1.97169615e-12
 1.97169615e-12
 1.97169615e-12
 1.97169615e-12
 3.16600530e-12
 3.16600530e-12
 3.16600530e-12
 3.16600530e-12
 3.16600530e-12
 3.16600530e-12
 3.16600530e-12
 3.16600530e-12
 3.16600530e-12
 3.91729678e-12
 3.91729678e-12
 3.91729678e-12
 3.91729678e-12
 3.91729678e-12
 3.91729678e-12
 3.91729678e-12
 3.91729678e-12
 3.91729678e-12
 3.91729678e-12
 3.91729678e-12
 3.91729678e-12
 3.91729678e-12
 3.91729678e-12
 2.54671700e-12
 2.54671700e-12
 2.54671700e-12
 2.54671700e-12
 2.54671700e-12
 2.54671700e-12
 2.54671700e-12
 2.54671700e-12
 2.54671700e-12
 2.54671700e-12
 1.23506024e-11
 1.23506024e-11
 1.23506024e-11
 1.23506024e-11
 1.23506024e-11
 1.23506024e-11
 1.23506024e-11
 1.23506024e-11
 1.23506024e-11
 1.23506024e-11
 1.23506024e-11
 1.23506024e-11
 1.28362618e-12
 1.28362618e-12
 1.28362618e-12
 1.28362618e-12
 8.24576250e-13
 8.24576250e-13
 8.24576250e-13
 4.64408669e-13
 4.64408669e-13
 4.64408669e-13
 6.43626452e-14
 6.43626452e-14
 4.54662913e-15
 4.54662913e-15
 4.54662913e-15