/*--------------------------------*- C++ -*----------------------------------*\
| =========                 |                                                 |
| \\      /  F ield        | OpenFOAM: The Open Source CFD Toolbox           |
|  \\    /   O peration    | Version:  7                                     |
|   \\  /    A nd          | Web:      http://www.OpenFOAM.com               |
|    \\/     M anipulation |                                                 |
\*---------------------------------------------------------------------------*/

FoamFile
{
    version     2.0;
    format      ascii;
    class       dictionary;
    object      Y_NH2_table;
}

Y_NH2_table
2
(
101
(
1
(
101
(
 4.68331400e-15
 4.68331400e-15
 4.68331400e-15
 4.68331400e-15
 4.68331400e-15
 4.68331400e-15
 4.68331400e-15
 4.68331400e-15
 4.68331400e-15
 4.68331400e-15
 4.68331400e-15
 4.68331400e-15
 4.68331400e-15
 4.68331400e-15
 4.68331400e-15
 4.68331400e-15
 4.68331400e-15
 4.68331400e-15
 4.68331400e-15
 4.68331400e-15
 4.68331400e-15
 4.68331400e-15
 4.68331400e-15
 4.68331400e-15
 4.68331400e-15
 4.68331400e-15
 4.68331400e-15
 4.68331400e-15
 4.68331400e-15
 4.68331400e-15
 4.68331400e-15
 4.68331400e-15
 4.68331400e-15
 4.68331400e-15
 4.68331400e-15
 4.68331400e-15
 4.68331400e-15
 4.68331400e-15
 4.68331400e-15
 4.68331400e-15
 4.68331400e-15
 4.68331400e-15
 4.68331400e-15
 4.68331400e-15
 4.68331400e-15
 1.27807206e-11
 1.27807206e-11
 5.17947310e-11
 5.17947310e-11
 5.17947310e-11
 5.17947310e-11
 5.17947310e-11
 5.17947310e-11
 5.17947310e-11
 5.17947310e-11
 5.17947310e-11
 5.17947310e-11
 5.17947310e-11
 5.17947310e-11
 5.17947310e-11
 5.17947310e-11
 5.17947310e-11
 5.17947310e-11
 4.24844399e-11
 4.24844399e-11
 4.24844399e-11
 4.24844399e-11
 4.24844399e-11
 4.24844399e-11
 4.24844399e-11
 4.24844399e-11
 4.24844399e-11
 4.24844399e-11
 4.24844399e-11
 4.24844399e-11
 6.49874496e-12
 6.49874496e-12
 6.49874496e-12
 6.49874496e-12
 6.49874496e-12
 6.49874496e-12
 6.49874496e-12
 8.18204800e-12
 8.18204800e-12
 8.18204800e-12
 8.18204800e-12
 8.18204800e-12
 8.18204800e-12
 6.20915831e-12
 6.20915831e-12
 6.20915831e-12
 6.20915831e-12
 6.20915831e-12
 6.20915831e-12
 6.20915831e-12
 1.82729802e-12
 1.82729802e-12
 1.82729802e-12
 1.82729802e-12
 1.82729802e-12
 4.27978341e-14
)
)
1
(
101
(
 1.86833777e-13
 1.86833777e-13
 1.86833777e-13
 1.86833777e-13
 1.86833777e-13
 1.86833777e-13
 1.86833777e-13
 1.86833777e-13
 1.86833777e-13
 1.86833777e-13
 1.86833777e-13
 1.86833777e-13
 1.86833777e-13
 1.86833777e-13
 1.86833777e-13
 1.86833777e-13
 1.86833777e-13
 1.86833777e-13
 1.86833777e-13
 1.86833777e-13
 1.86833777e-13
 1.86833777e-13
 1.86833777e-13
 1.86833777e-13
 1.86833777e-13
 1.86833777e-13
 1.86833777e-13
 1.86833777e-13
 1.86833777e-13
 1.86833777e-13
 1.86833777e-13
 1.86833777e-13
 1.86833777e-13
 1.86833777e-13
 1.86833777e-13
 1.86833777e-13
 1.86833777e-13
 1.86833777e-13
 1.86833777e-13
 1.86833777e-13
 1.86833777e-13
 1.86833777e-13
 1.86833777e-13
 1.86833777e-13
 1.86833777e-13
 1.27807206e-11
 1.27807206e-11
 1.27807206e-11
 5.17947310e-11
 5.17947310e-11
 5.17947310e-11
 5.17947310e-11
 5.17947310e-11
 5.17947310e-11
 5.17947310e-11
 5.17947310e-11
 5.17947310e-11
 5.17947310e-11
 5.17947310e-11
 5.17947310e-11
 5.17947310e-11
 5.17947310e-11
 5.17947310e-11
 5.17947310e-11
 5.17947310e-11
 4.24844399e-11
 4.24844399e-11
 4.24844399e-11
 4.24844399e-11
 4.24844399e-11
 4.24844399e-11
 4.24844399e-11
 4.24844399e-11
 4.24844399e-11
 4.24844399e-11
 4.24844399e-11
 4.24844399e-11
 6.49874496e-12
 6.49874496e-12
 6.49874496e-12
 6.49874496e-12
 6.49874496e-12
 6.49874496e-12
 8.18204800e-12
 8.18204800e-12
 8.18204800e-12
 8.18204800e-12
 8.18204800e-12
 8.18204800e-12
 8.18204800e-12
 6.20915831e-12
 6.20915831e-12
 6.20915831e-12
 6.20915831e-12
 6.20915831e-12
 6.20915831e-12
 3.40248371e-12
 1.82729802e-12
 1.82729802e-12
 1.82729802e-12
 7.24927043e-13
)
)
1
(
101
(
 3.58537087e-13
 3.58537087e-13
 3.58537087e-13
 3.58537087e-13
 3.58537087e-13
 3.58537087e-13
 3.58537087e-13
 3.58537087e-13
 3.58537087e-13
 3.58537087e-13
 3.58537087e-13
 3.58537087e-13
 3.58537087e-13
 3.58537087e-13
 3.58537087e-13
 3.58537087e-13
 3.58537087e-13
 3.58537087e-13
 3.58537087e-13
 3.58537087e-13
 3.58537087e-13
 3.58537087e-13
 3.58537087e-13
 3.58537087e-13
 3.58537087e-13
 3.58537087e-13
 3.58537087e-13
 3.58537087e-13
 3.58537087e-13
 3.58537087e-13
 3.58537087e-13
 3.58537087e-13
 3.58537087e-13
 3.58537087e-13
 3.58537087e-13
 3.58537087e-13
 3.58537087e-13
 3.58537087e-13
 3.58537087e-13
 3.58537087e-13
 3.58537087e-13
 3.58537087e-13
 3.58537087e-13
 3.58537087e-13
 1.27807206e-11
 1.27807206e-11
 1.27807206e-11
 1.27807206e-11
 1.27807206e-11
 1.27807206e-11
 5.17947310e-11
 5.17947310e-11
 5.17947310e-11
 5.17947310e-11
 5.17947310e-11
 5.17947310e-11
 5.17947310e-11
 5.17947310e-11
 5.17947310e-11
 5.17947310e-11
 5.17947310e-11
 5.17947310e-11
 5.17947310e-11
 5.17947310e-11
 5.17947310e-11
 5.17947310e-11
 4.24844399e-11
 4.24844399e-11
 4.24844399e-11
 4.24844399e-11
 4.24844399e-11
 4.24844399e-11
 4.24844399e-11
 4.24844399e-11
 4.24844399e-11
 4.24844399e-11
 4.24844399e-11
 4.24844399e-11
 6.49874496e-12
 6.49874496e-12
 6.49874496e-12
 6.49874496e-12
 6.49874496e-12
 6.49874496e-12
 6.49874496e-12
 8.18204800e-12
 8.18204800e-12
 8.18204800e-12
 8.18204800e-12
 8.18204800e-12
 8.18204800e-12
 6.20915831e-12
 6.20915831e-12
 6.20915831e-12
 6.20915831e-12
 6.20915831e-12
 6.20915831e-12
 3.40248371e-12
 3.40248371e-12
 1.71142281e-12
 1.71142281e-12
)
)
1
(
101
(
 3.90570594e-13
 3.90570594e-13
 3.90570594e-13
 3.90570594e-13
 3.90570594e-13
 3.90570594e-13
 3.90570594e-13
 3.90570594e-13
 3.90570594e-13
 3.90570594e-13
 3.90570594e-13
 3.90570594e-13
 3.90570594e-13
 3.90570594e-13
 3.90570594e-13
 3.90570594e-13
 3.90570594e-13
 3.90570594e-13
 3.90570594e-13
 3.90570594e-13
 3.90570594e-13
 3.90570594e-13
 3.90570594e-13
 3.90570594e-13
 3.90570594e-13
 3.90570594e-13
 3.90570594e-13
 3.90570594e-13
 3.90570594e-13
 3.90570594e-13
 3.90570594e-13
 3.90570594e-13
 3.90570594e-13
 3.90570594e-13
 3.90570594e-13
 3.90570594e-13
 3.90570594e-13
 3.90570594e-13
 3.90570594e-13
 3.90570594e-13
 3.90570594e-13
 3.90570594e-13
 3.90570594e-13
 3.90570594e-13
 9.60996155e-12
 1.27807206e-11
 1.27807206e-11
 1.27807206e-11
 1.27807206e-11
 1.27807206e-11
 1.27807206e-11
 5.17947310e-11
 5.17947310e-11
 5.17947310e-11
 5.17947310e-11
 5.17947310e-11
 5.17947310e-11
 5.17947310e-11
 5.17947310e-11
 5.17947310e-11
 5.17947310e-11
 5.17947310e-11
 5.17947310e-11
 5.17947310e-11
 5.17947310e-11
 5.17947310e-11
 5.17947310e-11
 4.24844399e-11
 4.24844399e-11
 4.24844399e-11
 4.24844399e-11
 4.24844399e-11
 4.24844399e-11
 4.24844399e-11
 4.24844399e-11
 4.24844399e-11
 4.24844399e-11
 4.24844399e-11
 4.24844399e-11
 9.57584630e-12
 6.49874496e-12
 6.49874496e-12
 6.49874496e-12
 6.49874496e-12
 6.49874496e-12
 6.49874496e-12
 8.18204800e-12
 8.18204800e-12
 8.18204800e-12
 8.18204800e-12
 8.18204800e-12
 8.18204800e-12
 8.18204800e-12
 6.20915831e-12
 6.20915831e-12
 6.20915831e-12
 6.20915831e-12
 6.20915831e-12
 3.40248371e-12
 8.37553523e-14
 8.37553523e-14
)
)
1
(
101
(
 6.04882212e-13
 6.04882212e-13
 6.04882212e-13
 6.04882212e-13
 6.04882212e-13
 6.04882212e-13
 6.04882212e-13
 6.04882212e-13
 6.04882212e-13
 6.04882212e-13
 6.04882212e-13
 6.04882212e-13
 6.04882212e-13
 6.04882212e-13
 6.04882212e-13
 6.04882212e-13
 6.04882212e-13
 6.04882212e-13
 6.04882212e-13
 6.04882212e-13
 6.04882212e-13
 6.04882212e-13
 6.04882212e-13
 6.04882212e-13
 6.04882212e-13
 6.04882212e-13
 6.04882212e-13
 6.04882212e-13
 6.04882212e-13
 6.04882212e-13
 6.04882212e-13
 6.04882212e-13
 6.04882212e-13
 6.04882212e-13
 6.04882212e-13
 6.04882212e-13
 6.04882212e-13
 6.04882212e-13
 6.04882212e-13
 6.04882212e-13
 6.04882212e-13
 6.04882212e-13
 6.04882212e-13
 6.04882212e-13
 9.60996155e-12
 9.60996155e-12
 9.60996155e-12
 1.27807206e-11
 1.27807206e-11
 1.27807206e-11
 1.27807206e-11
 1.27807206e-11
 1.27807206e-11
 5.17947310e-11
 5.17947310e-11
 5.17947310e-11
 5.17947310e-11
 5.17947310e-11
 5.17947310e-11
 5.17947310e-11
 5.17947310e-11
 5.17947310e-11
 5.17947310e-11
 5.17947310e-11
 5.17947310e-11
 5.17947310e-11
 5.17947310e-11
 5.17947310e-11
 4.24844399e-11
 4.24844399e-11
 4.24844399e-11
 4.24844399e-11
 4.24844399e-11
 4.24844399e-11
 4.24844399e-11
 4.24844399e-11
 4.24844399e-11
 4.24844399e-11
 4.24844399e-11
 4.24844399e-11
 9.57584630e-12
 6.49874496e-12
 6.49874496e-12
 6.49874496e-12
 6.49874496e-12
 6.49874496e-12
 6.49874496e-12
 6.49874496e-12
 8.18204800e-12
 8.18204800e-12
 8.18204800e-12
 8.18204800e-12
 8.18204800e-12
 8.18204800e-12
 4.48466119e-12
 6.20915831e-12
 6.20915831e-12
 6.20915831e-12
 1.60691354e-12
 1.60691354e-12
 8.37553523e-14
)
)
1
(
101
(
 6.73422918e-13
 6.73422918e-13
 6.73422918e-13
 6.73422918e-13
 6.73422918e-13
 6.73422918e-13
 6.73422918e-13
 6.73422918e-13
 6.73422918e-13
 6.73422918e-13
 6.73422918e-13
 6.73422918e-13
 6.73422918e-13
 6.73422918e-13
 6.73422918e-13
 6.73422918e-13
 6.73422918e-13
 6.73422918e-13
 6.73422918e-13
 6.73422918e-13
 6.73422918e-13
 6.73422918e-13
 6.73422918e-13
 6.73422918e-13
 6.73422918e-13
 6.73422918e-13
 6.73422918e-13
 6.73422918e-13
 6.73422918e-13
 6.73422918e-13
 6.73422918e-13
 6.73422918e-13
 6.73422918e-13
 6.73422918e-13
 6.73422918e-13
 6.73422918e-13
 6.73422918e-13
 6.73422918e-13
 6.73422918e-13
 6.73422918e-13
 6.73422918e-13
 6.73422918e-13
 4.25267001e-12
 9.60996155e-12
 9.60996155e-12
 9.60996155e-12
 9.60996155e-12
 9.60996155e-12
 1.27807206e-11
 1.27807206e-11
 1.27807206e-11
 1.27807206e-11
 1.27807206e-11
 1.27807206e-11
 5.17947310e-11
 5.17947310e-11
 5.17947310e-11
 5.17947310e-11
 5.17947310e-11
 5.17947310e-11
 5.17947310e-11
 5.17947310e-11
 5.17947310e-11
 5.17947310e-11
 5.17947310e-11
 5.17947310e-11
 5.17947310e-11
 5.17947310e-11
 5.17947310e-11
 5.17947310e-11
 4.24844399e-11
 4.24844399e-11
 4.24844399e-11
 4.24844399e-11
 4.24844399e-11
 4.24844399e-11
 4.24844399e-11
 4.24844399e-11
 4.24844399e-11
 4.24844399e-11
 4.24844399e-11
 9.57584630e-12
 9.57584630e-12
 6.49874496e-12
 6.49874496e-12
 6.49874496e-12
 6.49874496e-12
 6.49874496e-12
 6.49874496e-12
 8.18204800e-12
 8.18204800e-12
 8.18204800e-12
 8.18204800e-12
 8.18204800e-12
 8.18204800e-12
 4.48466119e-12
 4.48466119e-12
 3.10212198e-12
 3.10212198e-12
 1.60691354e-12
 1.60691354e-12
)
)
1
(
101
(
 8.45955457e-13
 8.45955457e-13
 8.45955457e-13
 8.45955457e-13
 8.45955457e-13
 8.45955457e-13
 8.45955457e-13
 8.45955457e-13
 8.45955457e-13
 8.45955457e-13
 8.45955457e-13
 8.45955457e-13
 8.45955457e-13
 8.45955457e-13
 8.45955457e-13
 8.45955457e-13
 8.45955457e-13
 8.45955457e-13
 8.45955457e-13
 8.45955457e-13
 8.45955457e-13
 8.45955457e-13
 8.45955457e-13
 8.45955457e-13
 8.45955457e-13
 8.45955457e-13
 8.45955457e-13
 8.45955457e-13
 8.45955457e-13
 8.45955457e-13
 8.45955457e-13
 8.45955457e-13
 8.45955457e-13
 4.25267001e-12
 4.25267001e-12
 4.25267001e-12
 4.25267001e-12
 4.25267001e-12
 4.25267001e-12
 4.25267001e-12
 4.25267001e-12
 4.25267001e-12
 4.25267001e-12
 9.60996155e-12
 9.60996155e-12
 9.60996155e-12
 9.60996155e-12
 9.60996155e-12
 9.60996155e-12
 1.27807206e-11
 1.27807206e-11
 1.27807206e-11
 1.27807206e-11
 1.27807206e-11
 1.27807206e-11
 1.27807206e-11
 5.17947310e-11
 5.17947310e-11
 5.17947310e-11
 5.17947310e-11
 5.17947310e-11
 5.17947310e-11
 5.17947310e-11
 5.17947310e-11
 5.17947310e-11
 5.17947310e-11
 5.17947310e-11
 5.17947310e-11
 5.17947310e-11
 5.17947310e-11
 5.17947310e-11
 4.24844399e-11
 4.24844399e-11
 4.24844399e-11
 4.24844399e-11
 4.24844399e-11
 4.24844399e-11
 4.24844399e-11
 4.24844399e-11
 4.24844399e-11
 4.24844399e-11
 4.24844399e-11
 9.57584630e-12
 9.57584630e-12
 6.49874496e-12
 6.49874496e-12
 6.49874496e-12
 6.49874496e-12
 6.49874496e-12
 6.49874496e-12
 6.49874496e-12
 8.18204800e-12
 8.18204800e-12
 8.18204800e-12
 8.18204800e-12
 8.18204800e-12
 4.48466119e-12
 4.48466119e-12
 3.10212198e-12
 3.10212198e-12
 1.60691354e-12
)
)
1
(
101
(
 1.07964414e-12
 1.07964414e-12
 1.07964414e-12
 1.07964414e-12
 1.07964414e-12
 1.07964414e-12
 1.07964414e-12
 1.07964414e-12
 1.07964414e-12
 1.07964414e-12
 1.07964414e-12
 1.07964414e-12
 1.07964414e-12
 1.07964414e-12
 1.07964414e-12
 1.07964414e-12
 1.07964414e-12
 1.07964414e-12
 1.07964414e-12
 1.07964414e-12
 1.07964414e-12
 1.07964414e-12
 1.07964414e-12
 1.07964414e-12
 1.07964414e-12
 1.07964414e-12
 4.25267001e-12
 4.25267001e-12
 4.25267001e-12
 4.25267001e-12
 4.25267001e-12
 4.25267001e-12
 4.25267001e-12
 4.25267001e-12
 4.25267001e-12
 4.25267001e-12
 4.25267001e-12
 4.25267001e-12
 4.25267001e-12
 4.25267001e-12
 4.25267001e-12
 4.25267001e-12
 4.25267001e-12
 9.60996155e-12
 9.60996155e-12
 9.60996155e-12
 9.60996155e-12
 9.60996155e-12
 9.60996155e-12
 9.60996155e-12
 1.27807206e-11
 1.27807206e-11
 1.27807206e-11
 1.27807206e-11
 1.27807206e-11
 1.27807206e-11
 1.27807206e-11
 5.17947310e-11
 5.17947310e-11
 5.17947310e-11
 5.17947310e-11
 5.17947310e-11
 5.17947310e-11
 5.17947310e-11
 5.17947310e-11
 5.17947310e-11
 5.17947310e-11
 5.17947310e-11
 5.17947310e-11
 5.17947310e-11
 5.17947310e-11
 5.17947310e-11
 4.24844399e-11
 4.24844399e-11
 4.24844399e-11
 4.24844399e-11
 4.24844399e-11
 4.24844399e-11
 4.24844399e-11
 4.24844399e-11
 4.24844399e-11
 4.24844399e-11
 4.24844399e-11
 9.57584630e-12
 9.57584630e-12
 9.57584630e-12
 6.49874496e-12
 6.49874496e-12
 6.49874496e-12
 6.49874496e-12
 6.49874496e-12
 6.49874496e-12
 7.59677778e-12
 8.18204800e-12
 8.18204800e-12
 8.18204800e-12
 3.04386159e-12
 3.04386159e-12
 3.04386159e-12
 3.10212198e-12
 3.10212198e-12
)
)
1
(
101
(
 1.05054821e-12
 1.05054821e-12
 1.05054821e-12
 1.05054821e-12
 1.05054821e-12
 1.05054821e-12
 1.05054821e-12
 1.05054821e-12
 1.05054821e-12
 1.05054821e-12
 1.05054821e-12
 1.05054821e-12
 1.05054821e-12
 1.05054821e-12
 1.05054821e-12
 1.05054821e-12
 1.05054821e-12
 1.05054821e-12
 1.05054821e-12
 4.25267001e-12
 4.25267001e-12
 4.25267001e-12
 4.25267001e-12
 4.25267001e-12
 4.25267001e-12
 4.25267001e-12
 4.25267001e-12
 4.25267001e-12
 4.25267001e-12
 4.25267001e-12
 4.25267001e-12
 4.25267001e-12
 4.25267001e-12
 4.25267001e-12
 4.25267001e-12
 4.25267001e-12
 4.25267001e-12
 4.25267001e-12
 4.25267001e-12
 4.25267001e-12
 4.25267001e-12
 4.25267001e-12
 9.60996155e-12
 9.60996155e-12
 9.60996155e-12
 9.60996155e-12
 9.60996155e-12
 9.60996155e-12
 9.60996155e-12
 9.60996155e-12
 9.60996155e-12
 1.27807206e-11
 1.27807206e-11
 1.27807206e-11
 1.27807206e-11
 1.27807206e-11
 1.27807206e-11
 1.27807206e-11
 1.27807206e-11
 5.17947310e-11
 5.17947310e-11
 5.17947310e-11
 5.17947310e-11
 5.17947310e-11
 5.17947310e-11
 5.17947310e-11
 5.17947310e-11
 5.17947310e-11
 5.17947310e-11
 5.17947310e-11
 5.17947310e-11
 5.17947310e-11
 5.17947310e-11
 4.24844399e-11
 4.24844399e-11
 4.24844399e-11
 4.24844399e-11
 4.24844399e-11
 4.24844399e-11
 4.24844399e-11
 4.24844399e-11
 4.24844399e-11
 4.24844399e-11
 4.24844399e-11
 9.57584630e-12
 9.57584630e-12
 9.57584630e-12
 6.49874496e-12
 6.49874496e-12
 6.49874496e-12
 6.49874496e-12
 6.49874496e-12
 6.49874496e-12
 7.59677778e-12
 7.59677778e-12
 2.65888023e-12
 2.65888023e-12
 3.04386159e-12
 3.04386159e-12
 3.04386159e-12
 3.04386159e-12
)
)
1
(
101
(
 1.41920612e-12
 1.41920612e-12
 1.41920612e-12
 1.41920612e-12
 1.41920612e-12
 1.41920612e-12
 1.41920612e-12
 1.41920612e-12
 1.41920612e-12
 1.41920612e-12
 1.41920612e-12
 1.41920612e-12
 1.41920612e-12
 1.41920612e-12
 4.25267001e-12
 4.25267001e-12
 4.25267001e-12
 4.25267001e-12
 4.25267001e-12
 4.25267001e-12
 4.25267001e-12
 4.25267001e-12
 4.25267001e-12
 4.25267001e-12
 4.25267001e-12
 4.25267001e-12
 4.25267001e-12
 4.25267001e-12
 4.25267001e-12
 4.25267001e-12
 4.25267001e-12
 4.25267001e-12
 4.25267001e-12
 4.25267001e-12
 4.25267001e-12
 4.25267001e-12
 4.25267001e-12
 4.25267001e-12
 4.25267001e-12
 4.25267001e-12
 4.25267001e-12
 4.25267001e-12
 9.60996155e-12
 9.60996155e-12
 9.60996155e-12
 9.60996155e-12
 9.60996155e-12
 9.60996155e-12
 9.60996155e-12
 9.60996155e-12
 9.60996155e-12
 9.60996155e-12
 1.27807206e-11
 1.27807206e-11
 1.27807206e-11
 1.27807206e-11
 1.27807206e-11
 1.27807206e-11
 1.27807206e-11
 1.27807206e-11
 5.17947310e-11
 5.17947310e-11
 5.17947310e-11
 5.17947310e-11
 5.17947310e-11
 5.17947310e-11
 5.17947310e-11
 5.17947310e-11
 5.17947310e-11
 5.17947310e-11
 5.17947310e-11
 5.17947310e-11
 5.17947310e-11
 5.17947310e-11
 5.17947310e-11
 4.24844399e-11
 4.24844399e-11
 4.24844399e-11
 4.24844399e-11
 4.24844399e-11
 4.24844399e-11
 4.24844399e-11
 4.24844399e-11
 4.24844399e-11
 4.24844399e-11
 9.57584630e-12
 9.57584630e-12
 9.57584630e-12
 9.57584630e-12
 6.49874496e-12
 6.49874496e-12
 6.49874496e-12
 6.49874496e-12
 6.49874496e-12
 7.59677778e-12
 7.59677778e-12
 2.65888023e-12
 2.65888023e-12
 3.04386159e-12
 3.04386159e-12
 3.04386159e-12
)
)
1
(
101
(
 1.46491274e-12
 1.46491274e-12
 1.46491274e-12
 1.46491274e-12
 1.46491274e-12
 1.46491274e-12
 1.46491274e-12
 1.46491274e-12
 1.46491274e-12
 4.25267001e-12
 4.25267001e-12
 4.25267001e-12
 4.25267001e-12
 4.25267001e-12
 4.25267001e-12
 4.25267001e-12
 4.25267001e-12
 4.25267001e-12
 4.25267001e-12
 4.25267001e-12
 4.25267001e-12
 4.25267001e-12
 4.25267001e-12
 4.25267001e-12
 4.25267001e-12
 4.25267001e-12
 4.25267001e-12
 4.25267001e-12
 4.25267001e-12
 4.25267001e-12
 4.25267001e-12
 4.25267001e-12
 4.25267001e-12
 4.25267001e-12
 4.25267001e-12
 4.25267001e-12
 4.25267001e-12
 4.25267001e-12
 4.25267001e-12
 4.25267001e-12
 4.25267001e-12
 4.25267001e-12
 9.60996155e-12
 9.60996155e-12
 9.60996155e-12
 9.60996155e-12
 9.60996155e-12
 9.60996155e-12
 9.60996155e-12
 9.60996155e-12
 9.60996155e-12
 9.60996155e-12
 9.60996155e-12
 9.60996155e-12
 1.27807206e-11
 1.27807206e-11
 1.27807206e-11
 1.27807206e-11
 1.27807206e-11
 1.27807206e-11
 1.27807206e-11
 1.27807206e-11
 5.17947310e-11
 5.17947310e-11
 5.17947310e-11
 5.17947310e-11
 5.17947310e-11
 5.17947310e-11
 5.17947310e-11
 5.17947310e-11
 5.17947310e-11
 5.17947310e-11
 5.17947310e-11
 5.17947310e-11
 5.17947310e-11
 5.17947310e-11
 4.24844399e-11
 4.24844399e-11
 4.24844399e-11
 4.24844399e-11
 4.24844399e-11
 4.24844399e-11
 4.24844399e-11
 4.24844399e-11
 4.24844399e-11
 4.24844399e-11
 9.57584630e-12
 9.57584630e-12
 9.57584630e-12
 9.57584630e-12
 5.64708363e-12
 6.49874496e-12
 6.49874496e-12
 6.49874496e-12
 6.49874496e-12
 7.59677778e-12
 7.59677778e-12
 2.65888023e-12
 2.65888023e-12
 3.04386159e-12
 3.04386159e-12
)
)
1
(
101
(
 1.55462245e-12
 1.55462245e-12
 1.55462245e-12
 1.55462245e-12
 1.55462245e-12
 1.55462245e-12
 4.25267001e-12
 4.25267001e-12
 4.25267001e-12
 4.25267001e-12
 4.25267001e-12
 4.25267001e-12
 4.25267001e-12
 4.25267001e-12
 4.25267001e-12
 4.25267001e-12
 4.25267001e-12
 4.25267001e-12
 4.25267001e-12
 4.25267001e-12
 4.25267001e-12
 4.25267001e-12
 4.25267001e-12
 4.25267001e-12
 4.25267001e-12
 4.25267001e-12
 4.25267001e-12
 4.25267001e-12
 4.25267001e-12
 4.25267001e-12
 4.25267001e-12
 4.25267001e-12
 4.25267001e-12
 4.25267001e-12
 4.25267001e-12
 4.25267001e-12
 4.25267001e-12
 4.25267001e-12
 4.25267001e-12
 4.25267001e-12
 4.25267001e-12
 4.25267001e-12
 9.60996155e-12
 9.60996155e-12
 9.60996155e-12
 9.60996155e-12
 9.60996155e-12
 9.60996155e-12
 9.60996155e-12
 9.60996155e-12
 9.60996155e-12
 9.60996155e-12
 9.60996155e-12
 9.60996155e-12
 9.60996155e-12
 1.27807206e-11
 1.27807206e-11
 1.27807206e-11
 1.27807206e-11
 1.27807206e-11
 1.27807206e-11
 1.27807206e-11
 1.27807206e-11
 5.17947310e-11
 5.17947310e-11
 5.17947310e-11
 5.17947310e-11
 5.17947310e-11
 5.17947310e-11
 5.17947310e-11
 5.17947310e-11
 5.17947310e-11
 5.17947310e-11
 5.17947310e-11
 5.17947310e-11
 5.17947310e-11
 5.17947310e-11
 4.24844399e-11
 4.24844399e-11
 4.24844399e-11
 4.24844399e-11
 4.24844399e-11
 4.24844399e-11
 4.24844399e-11
 4.24844399e-11
 4.24844399e-11
 4.24844399e-11
 9.57584630e-12
 9.57584630e-12
 9.57584630e-12
 9.57584630e-12
 5.64708363e-12
 5.64708363e-12
 3.69331463e-12
 3.69331463e-12
 3.69331463e-12
 7.59677778e-12
 7.59677778e-12
 2.65888023e-12
 2.65888023e-12
 3.04386159e-12
)
)
1
(
101
(
 1.90343588e-12
 1.90343588e-12
 1.90343588e-12
 4.25267001e-12
 4.25267001e-12
 4.25267001e-12
 4.25267001e-12
 4.25267001e-12
 4.25267001e-12
 4.25267001e-12
 4.25267001e-12
 4.25267001e-12
 4.25267001e-12
 4.25267001e-12
 4.25267001e-12
 4.25267001e-12
 4.25267001e-12
 4.25267001e-12
 4.25267001e-12
 4.25267001e-12
 4.25267001e-12
 4.25267001e-12
 4.25267001e-12
 4.25267001e-12
 4.25267001e-12
 4.25267001e-12
 4.25267001e-12
 4.25267001e-12
 4.25267001e-12
 4.25267001e-12
 4.25267001e-12
 4.25267001e-12
 4.25267001e-12
 4.25267001e-12
 4.25267001e-12
 4.25267001e-12
 4.25267001e-12
 4.25267001e-12
 4.25267001e-12
 4.25267001e-12
 4.25267001e-12
 3.12208482e-12
 9.60996155e-12
 9.60996155e-12
 9.60996155e-12
 9.60996155e-12
 9.60996155e-12
 9.60996155e-12
 9.60996155e-12
 9.60996155e-12
 9.60996155e-12
 9.60996155e-12
 9.60996155e-12
 9.60996155e-12
 9.60996155e-12
 9.60996155e-12
 1.27807206e-11
 1.27807206e-11
 1.27807206e-11
 1.27807206e-11
 1.27807206e-11
 1.27807206e-11
 1.27807206e-11
 1.27807206e-11
 1.27807206e-11
 5.17947310e-11
 5.17947310e-11
 5.17947310e-11
 5.17947310e-11
 5.17947310e-11
 5.17947310e-11
 5.17947310e-11
 5.17947310e-11
 5.17947310e-11
 5.17947310e-11
 5.17947310e-11
 5.17947310e-11
 5.17947310e-11
 4.24844399e-11
 4.24844399e-11
 4.24844399e-11
 4.24844399e-11
 4.24844399e-11
 4.24844399e-11
 4.24844399e-11
 4.24844399e-11
 4.24844399e-11
 4.24844399e-11
 9.57584630e-12
 9.57584630e-12
 9.57584630e-12
 9.57584630e-12
 5.64708363e-12
 5.64708363e-12
 3.69331463e-12
 3.69331463e-12
 3.69331463e-12
 3.69331463e-12
 7.59677778e-12
 2.65888023e-12
 2.65888023e-12
)
)
1
(
101
(
 1.31640187e-12
 1.31640187e-12
 4.25267001e-12
 4.25267001e-12
 4.25267001e-12
 4.25267001e-12
 4.25267001e-12
 4.25267001e-12
 4.25267001e-12
 4.25267001e-12
 4.25267001e-12
 4.25267001e-12
 4.25267001e-12
 4.25267001e-12
 4.25267001e-12
 4.25267001e-12
 4.25267001e-12
 4.25267001e-12
 4.25267001e-12
 4.25267001e-12
 4.25267001e-12
 4.25267001e-12
 4.25267001e-12
 4.25267001e-12
 4.25267001e-12
 4.25267001e-12
 4.25267001e-12
 4.25267001e-12
 4.25267001e-12
 4.25267001e-12
 4.25267001e-12
 4.25267001e-12
 4.25267001e-12
 4.25267001e-12
 4.25267001e-12
 4.25267001e-12
 4.25267001e-12
 4.25267001e-12
 4.25267001e-12
 4.25267001e-12
 4.25267001e-12
 3.12208482e-12
 3.12208482e-12
 9.60996155e-12
 9.60996155e-12
 9.60996155e-12
 9.60996155e-12
 9.60996155e-12
 9.60996155e-12
 9.60996155e-12
 9.60996155e-12
 9.60996155e-12
 9.60996155e-12
 9.60996155e-12
 9.60996155e-12
 9.60996155e-12
 9.60996155e-12
 1.27807206e-11
 1.27807206e-11
 1.27807206e-11
 1.27807206e-11
 1.27807206e-11
 1.27807206e-11
 1.27807206e-11
 1.27807206e-11
 1.27807206e-11
 5.17947310e-11
 5.17947310e-11
 5.17947310e-11
 5.17947310e-11
 5.17947310e-11
 5.17947310e-11
 5.17947310e-11
 5.17947310e-11
 5.17947310e-11
 5.17947310e-11
 5.17947310e-11
 5.17947310e-11
 5.17947310e-11
 5.17947310e-11
 4.24844399e-11
 4.24844399e-11
 4.24844399e-11
 4.24844399e-11
 4.24844399e-11
 4.24844399e-11
 4.24844399e-11
 4.24844399e-11
 6.11347883e-12
 9.57584630e-12
 9.57584630e-12
 9.57584630e-12
 1.93493989e-14
 1.93493989e-14
 1.93493989e-14
 3.69331463e-12
 3.69331463e-12
 3.69331463e-12
 3.69331463e-12
 3.69331463e-12
 2.65888023e-12
)
)
1
(
101
(
 8.95927018e-15
 4.25267001e-12
 4.25267001e-12
 4.25267001e-12
 4.25267001e-12
 4.25267001e-12
 4.25267001e-12
 4.25267001e-12
 4.25267001e-12
 4.25267001e-12
 4.25267001e-12
 4.25267001e-12
 4.25267001e-12
 4.25267001e-12
 4.25267001e-12
 4.25267001e-12
 4.25267001e-12
 4.25267001e-12
 4.25267001e-12
 4.25267001e-12
 4.25267001e-12
 4.25267001e-12
 4.25267001e-12
 4.25267001e-12
 4.25267001e-12
 4.25267001e-12
 4.25267001e-12
 4.25267001e-12
 4.25267001e-12
 4.25267001e-12
 4.25267001e-12
 4.25267001e-12
 4.25267001e-12
 4.25267001e-12
 4.25267001e-12
 4.25267001e-12
 4.25267001e-12
 4.25267001e-12
 4.25267001e-12
 4.25267001e-12
 3.12208482e-12
 3.12208482e-12
 3.12208482e-12
 3.12208482e-12
 9.60996155e-12
 9.60996155e-12
 9.60996155e-12
 9.60996155e-12
 9.60996155e-12
 9.60996155e-12
 9.60996155e-12
 9.60996155e-12
 9.60996155e-12
 9.60996155e-12
 9.60996155e-12
 9.60996155e-12
 9.60996155e-12
 9.60996155e-12
 1.27807206e-11
 1.27807206e-11
 1.27807206e-11
 1.27807206e-11
 1.27807206e-11
 1.27807206e-11
 1.27807206e-11
 1.27807206e-11
 1.27807206e-11
 1.27807206e-11
 5.17947310e-11
 5.17947310e-11
 5.17947310e-11
 5.17947310e-11
 5.17947310e-11
 5.17947310e-11
 5.17947310e-11
 5.17947310e-11
 5.17947310e-11
 5.17947310e-11
 5.17947310e-11
 5.17947310e-11
 5.17947310e-11
 1.36859472e-11
 4.24844399e-11
 4.24844399e-11
 4.24844399e-11
 4.24844399e-11
 4.24844399e-11
 4.24844399e-11
 4.24844399e-11
 6.11347883e-12
 6.11347883e-12
 1.67501627e-12
 1.67501627e-12
 1.93493989e-14
 1.93493989e-14
 1.93493989e-14
 1.93493989e-14
 3.69331463e-12
 3.69331463e-12
 3.69331463e-12
 3.69331463e-12
)
)
1
(
101
(
 8.95927018e-15
 2.42883229e-12
 2.42883229e-12
 2.42883229e-12
 2.42883229e-12
 2.42883229e-12
 2.42883229e-12
 2.42883229e-12
 2.42883229e-12
 2.42883229e-12
 2.42883229e-12
 2.42883229e-12
 2.42883229e-12
 2.42883229e-12
 2.42883229e-12
 2.42883229e-12
 2.42883229e-12
 2.42883229e-12
 2.42883229e-12
 2.42883229e-12
 2.42883229e-12
 2.42883229e-12
 2.42883229e-12
 2.42883229e-12
 2.42883229e-12
 2.42883229e-12
 2.42883229e-12
 2.42883229e-12
 2.42883229e-12
 2.42883229e-12
 2.42883229e-12
 2.42883229e-12
 2.42883229e-12
 2.42883229e-12
 2.42883229e-12
 2.42883229e-12
 2.42883229e-12
 2.42883229e-12
 2.42883229e-12
 2.42883229e-12
 3.12208482e-12
 3.12208482e-12
 3.12208482e-12
 3.12208482e-12
 3.12208482e-12
 9.60996155e-12
 9.60996155e-12
 9.60996155e-12
 9.60996155e-12
 9.60996155e-12
 9.60996155e-12
 9.60996155e-12
 9.60996155e-12
 9.60996155e-12
 9.60996155e-12
 9.60996155e-12
 9.60996155e-12
 9.60996155e-12
 9.60996155e-12
 1.27807206e-11
 1.27807206e-11
 1.27807206e-11
 1.27807206e-11
 1.27807206e-11
 1.27807206e-11
 1.27807206e-11
 1.27807206e-11
 1.27807206e-11
 1.27807206e-11
 5.17947310e-11
 5.17947310e-11
 5.17947310e-11
 5.17947310e-11
 5.17947310e-11
 5.17947310e-11
 5.17947310e-11
 5.17947310e-11
 5.17947310e-11
 5.17947310e-11
 5.17947310e-11
 5.17947310e-11
 5.17947310e-11
 1.36859472e-11
 1.36859472e-11
 4.24844399e-11
 4.24844399e-11
 4.24844399e-11
 4.24844399e-11
 4.24844399e-11
 6.11347883e-12
 6.11347883e-12
 6.11347883e-12
 1.67501627e-12
 1.67501627e-12
 1.93493989e-14
 1.93493989e-14
 1.93493989e-14
 1.93493989e-14
 1.93493989e-14
 3.69331463e-12
 3.69331463e-12
)
)
1
(
101
(
 3.15884621e-12
 3.15884621e-12
 3.15884621e-12
 3.15884621e-12
 3.15884621e-12
 3.15884621e-12
 3.15884621e-12
 3.15884621e-12
 3.15884621e-12
 3.15884621e-12
 3.15884621e-12
 3.15884621e-12
 3.15884621e-12
 3.15884621e-12
 3.15884621e-12
 3.15884621e-12
 3.15884621e-12
 3.15884621e-12
 3.15884621e-12
 3.15884621e-12
 3.15884621e-12
 3.15884621e-12
 3.15884621e-12
 3.15884621e-12
 3.15884621e-12
 3.15884621e-12
 3.15884621e-12
 3.15884621e-12
 3.15884621e-12
 3.15884621e-12
 3.15884621e-12
 3.15884621e-12
 3.15884621e-12
 3.15884621e-12
 3.15884621e-12
 3.15884621e-12
 3.15884621e-12
 3.15884621e-12
 3.15884621e-12
 3.15884621e-12
 3.12208482e-12
 3.12208482e-12
 3.12208482e-12
 3.12208482e-12
 3.12208482e-12
 3.12208482e-12
 9.60996155e-12
 9.60996155e-12
 9.60996155e-12
 9.60996155e-12
 9.60996155e-12
 9.60996155e-12
 9.60996155e-12
 9.60996155e-12
 9.60996155e-12
 9.60996155e-12
 9.60996155e-12
 9.60996155e-12
 9.60996155e-12
 9.60996155e-12
 9.60996155e-12
 1.27807206e-11
 1.27807206e-11
 1.27807206e-11
 1.27807206e-11
 1.27807206e-11
 1.27807206e-11
 1.27807206e-11
 1.27807206e-11
 1.27807206e-11
 1.27807206e-11
 5.17947310e-11
 5.17947310e-11
 5.17947310e-11
 5.17947310e-11
 5.17947310e-11
 5.17947310e-11
 5.17947310e-11
 5.17947310e-11
 5.17947310e-11
 5.17947310e-11
 5.17947310e-11
 5.17947310e-11
 1.36859472e-11
 1.36859472e-11
 1.36859472e-11
 4.24844399e-11
 4.24844399e-11
 4.24844399e-11
 4.24844399e-11
 6.11347883e-12
 6.11347883e-12
 6.11347883e-12
 1.67501627e-12
 1.67501627e-12
 1.93493989e-14
 1.93493989e-14
 1.93493989e-14
 1.93493989e-14
 1.93493989e-14
 1.93493989e-14
)
)
1
(
101
(
 3.75902502e-12
 3.75902502e-12
 3.75902502e-12
 3.75902502e-12
 3.75902502e-12
 3.75902502e-12
 3.75902502e-12
 3.75902502e-12
 3.75902502e-12
 3.75902502e-12
 3.75902502e-12
 3.75902502e-12
 3.75902502e-12
 3.75902502e-12
 3.75902502e-12
 3.75902502e-12
 3.75902502e-12
 3.75902502e-12
 3.75902502e-12
 3.75902502e-12
 3.75902502e-12
 3.75902502e-12
 3.75902502e-12
 3.75902502e-12
 3.75902502e-12
 3.75902502e-12
 3.75902502e-12
 3.75902502e-12
 3.75902502e-12
 3.75902502e-12
 3.75902502e-12
 3.75902502e-12
 3.75902502e-12
 3.75902502e-12
 3.75902502e-12
 3.75902502e-12
 3.75902502e-12
 3.75902502e-12
 3.75902502e-12
 3.12208482e-12
 3.12208482e-12
 3.12208482e-12
 3.12208482e-12
 3.12208482e-12
 3.12208482e-12
 3.12208482e-12
 3.12208482e-12
 3.12208482e-12
 9.60996155e-12
 9.60996155e-12
 9.60996155e-12
 9.60996155e-12
 9.60996155e-12
 9.60996155e-12
 9.60996155e-12
 9.60996155e-12
 9.60996155e-12
 9.60996155e-12
 9.60996155e-12
 9.60996155e-12
 9.60996155e-12
 9.60996155e-12
 1.27807206e-11
 1.27807206e-11
 1.27807206e-11
 1.27807206e-11
 1.27807206e-11
 1.27807206e-11
 1.27807206e-11
 1.27807206e-11
 1.27807206e-11
 1.27807206e-11
 5.17947310e-11
 5.17947310e-11
 5.17947310e-11
 5.17947310e-11
 5.17947310e-11
 5.17947310e-11
 5.17947310e-11
 5.17947310e-11
 5.17947310e-11
 5.17947310e-11
 5.17947310e-11
 5.17947310e-11
 1.36859472e-11
 1.36859472e-11
 1.36859472e-11
 1.36859472e-11
 7.91536592e-12
 7.91536592e-12
 7.91536592e-12
 6.11347883e-12
 6.11347883e-12
 6.11347883e-12
 1.67501627e-12
 1.67501627e-12
 1.93493989e-14
 1.93493989e-14
 1.93493989e-14