/*--------------------------------*- C++ -*----------------------------------*\
| =========                 |                                                 |
| \\      /  F ield        | OpenFOAM: The Open Source CFD Toolbox           |
|  \\    /   O peration    | Version:  7                                     |
|   \\  /    A nd          | Web:      http://www.OpenFOAM.com               |
|    \\/     M anipulation |                                                 |
\*---------------------------------------------------------------------------*/

FoamFile
{
    version     2.0;
    format      ascii;
    class       dictionary;
    object      Y_NNH_table;
}

Y_NNH_table
2
(
101
(
1
(
101
(
 2.26275602e-23
 2.26275602e-23
 2.26275602e-23
 2.26275602e-23
 2.26275602e-23
 2.26275602e-23
 2.26275602e-23
 2.26275602e-23
 2.26275602e-23
 2.26275602e-23
 2.26275602e-23
 2.26275602e-23
 2.26275602e-23
 2.26275602e-23
 2.26275602e-23
 2.26275602e-23
 2.26275602e-23
 2.26275602e-23
 2.26275602e-23
 2.26275602e-23
 2.26275602e-23
 2.26275602e-23
 2.26275602e-23
 2.26275602e-23
 2.26275602e-23
 2.26275602e-23
 2.26275602e-23
 2.26275602e-23
 2.26275602e-23
 2.26275602e-23
 2.26275602e-23
 2.26275602e-23
 2.26275602e-23
 2.26275602e-23
 2.26275602e-23
 2.26275602e-23
 2.26275602e-23
 2.26275602e-23
 2.26275602e-23
 2.26275602e-23
 2.26275602e-23
 2.26275602e-23
 2.26275602e-23
 2.26275602e-23
 2.26275602e-23
 1.78331566e-18
 1.78331566e-18
 1.76526383e-18
 1.76526383e-18
 1.76526383e-18
 1.76526383e-18
 1.76526383e-18
 1.76526383e-18
 1.76526383e-18
 1.76526383e-18
 1.76526383e-18
 1.76526383e-18
 1.76526383e-18
 1.76526383e-18
 1.76526383e-18
 1.76526383e-18
 1.76526383e-18
 1.76526383e-18
 4.26381445e-19
 4.26381445e-19
 4.26381445e-19
 4.26381445e-19
 4.26381445e-19
 4.26381445e-19
 4.26381445e-19
 4.26381445e-19
 4.26381445e-19
 4.26381445e-19
 4.26381445e-19
 4.26381445e-19
 6.94782284e-21
 6.94782284e-21
 6.94782284e-21
 6.94782284e-21
 6.94782284e-21
 6.94782284e-21
 6.94782284e-21
 2.96931740e-21
 2.96931740e-21
 2.96931740e-21
 2.96931740e-21
 2.96931740e-21
 2.96931740e-21
 5.27361653e-22
 5.27361653e-22
 5.27361653e-22
 5.27361653e-22
 5.27361653e-22
 5.27361653e-22
 5.27361653e-22
 2.01072425e-23
 2.01072425e-23
 2.01072425e-23
 2.01072425e-23
 2.01072425e-23
 1.02100299e-25
)
)
1
(
101
(
 5.26245154e-21
 5.26245154e-21
 5.26245154e-21
 5.26245154e-21
 5.26245154e-21
 5.26245154e-21
 5.26245154e-21
 5.26245154e-21
 5.26245154e-21
 5.26245154e-21
 5.26245154e-21
 5.26245154e-21
 5.26245154e-21
 5.26245154e-21
 5.26245154e-21
 5.26245154e-21
 5.26245154e-21
 5.26245154e-21
 5.26245154e-21
 5.26245154e-21
 5.26245154e-21
 5.26245154e-21
 5.26245154e-21
 5.26245154e-21
 5.26245154e-21
 5.26245154e-21
 5.26245154e-21
 5.26245154e-21
 5.26245154e-21
 5.26245154e-21
 5.26245154e-21
 5.26245154e-21
 5.26245154e-21
 5.26245154e-21
 5.26245154e-21
 5.26245154e-21
 5.26245154e-21
 5.26245154e-21
 5.26245154e-21
 5.26245154e-21
 5.26245154e-21
 5.26245154e-21
 5.26245154e-21
 5.26245154e-21
 5.26245154e-21
 1.78331566e-18
 1.78331566e-18
 1.78331566e-18
 1.76526383e-18
 1.76526383e-18
 1.76526383e-18
 1.76526383e-18
 1.76526383e-18
 1.76526383e-18
 1.76526383e-18
 1.76526383e-18
 1.76526383e-18
 1.76526383e-18
 1.76526383e-18
 1.76526383e-18
 1.76526383e-18
 1.76526383e-18
 1.76526383e-18
 1.76526383e-18
 1.76526383e-18
 4.26381445e-19
 4.26381445e-19
 4.26381445e-19
 4.26381445e-19
 4.26381445e-19
 4.26381445e-19
 4.26381445e-19
 4.26381445e-19
 4.26381445e-19
 4.26381445e-19
 4.26381445e-19
 4.26381445e-19
 6.94782284e-21
 6.94782284e-21
 6.94782284e-21
 6.94782284e-21
 6.94782284e-21
 6.94782284e-21
 2.96931740e-21
 2.96931740e-21
 2.96931740e-21
 2.96931740e-21
 2.96931740e-21
 2.96931740e-21
 2.96931740e-21
 5.27361653e-22
 5.27361653e-22
 5.27361653e-22
 5.27361653e-22
 5.27361653e-22
 5.27361653e-22
 1.51524728e-22
 2.01072425e-23
 2.01072425e-23
 2.01072425e-23
 4.46929760e-24
)
)
1
(
101
(
 5.60713406e-20
 5.60713406e-20
 5.60713406e-20
 5.60713406e-20
 5.60713406e-20
 5.60713406e-20
 5.60713406e-20
 5.60713406e-20
 5.60713406e-20
 5.60713406e-20
 5.60713406e-20
 5.60713406e-20
 5.60713406e-20
 5.60713406e-20
 5.60713406e-20
 5.60713406e-20
 5.60713406e-20
 5.60713406e-20
 5.60713406e-20
 5.60713406e-20
 5.60713406e-20
 5.60713406e-20
 5.60713406e-20
 5.60713406e-20
 5.60713406e-20
 5.60713406e-20
 5.60713406e-20
 5.60713406e-20
 5.60713406e-20
 5.60713406e-20
 5.60713406e-20
 5.60713406e-20
 5.60713406e-20
 5.60713406e-20
 5.60713406e-20
 5.60713406e-20
 5.60713406e-20
 5.60713406e-20
 5.60713406e-20
 5.60713406e-20
 5.60713406e-20
 5.60713406e-20
 5.60713406e-20
 5.60713406e-20
 1.78331566e-18
 1.78331566e-18
 1.78331566e-18
 1.78331566e-18
 1.78331566e-18
 1.78331566e-18
 1.76526383e-18
 1.76526383e-18
 1.76526383e-18
 1.76526383e-18
 1.76526383e-18
 1.76526383e-18
 1.76526383e-18
 1.76526383e-18
 1.76526383e-18
 1.76526383e-18
 1.76526383e-18
 1.76526383e-18
 1.76526383e-18
 1.76526383e-18
 1.76526383e-18
 1.76526383e-18
 4.26381445e-19
 4.26381445e-19
 4.26381445e-19
 4.26381445e-19
 4.26381445e-19
 4.26381445e-19
 4.26381445e-19
 4.26381445e-19
 4.26381445e-19
 4.26381445e-19
 4.26381445e-19
 4.26381445e-19
 6.94782284e-21
 6.94782284e-21
 6.94782284e-21
 6.94782284e-21
 6.94782284e-21
 6.94782284e-21
 6.94782284e-21
 2.96931740e-21
 2.96931740e-21
 2.96931740e-21
 2.96931740e-21
 2.96931740e-21
 2.96931740e-21
 5.27361653e-22
 5.27361653e-22
 5.27361653e-22
 5.27361653e-22
 5.27361653e-22
 5.27361653e-22
 1.51524728e-22
 1.51524728e-22
 3.39813787e-23
 3.39813787e-23
)
)
1
(
101
(
 2.35323007e-19
 2.35323007e-19
 2.35323007e-19
 2.35323007e-19
 2.35323007e-19
 2.35323007e-19
 2.35323007e-19
 2.35323007e-19
 2.35323007e-19
 2.35323007e-19
 2.35323007e-19
 2.35323007e-19
 2.35323007e-19
 2.35323007e-19
 2.35323007e-19
 2.35323007e-19
 2.35323007e-19
 2.35323007e-19
 2.35323007e-19
 2.35323007e-19
 2.35323007e-19
 2.35323007e-19
 2.35323007e-19
 2.35323007e-19
 2.35323007e-19
 2.35323007e-19
 2.35323007e-19
 2.35323007e-19
 2.35323007e-19
 2.35323007e-19
 2.35323007e-19
 2.35323007e-19
 2.35323007e-19
 2.35323007e-19
 2.35323007e-19
 2.35323007e-19
 2.35323007e-19
 2.35323007e-19
 2.35323007e-19
 2.35323007e-19
 2.35323007e-19
 2.35323007e-19
 2.35323007e-19
 2.35323007e-19
 7.11983136e-18
 1.78331566e-18
 1.78331566e-18
 1.78331566e-18
 1.78331566e-18
 1.78331566e-18
 1.78331566e-18
 1.76526383e-18
 1.76526383e-18
 1.76526383e-18
 1.76526383e-18
 1.76526383e-18
 1.76526383e-18
 1.76526383e-18
 1.76526383e-18
 1.76526383e-18
 1.76526383e-18
 1.76526383e-18
 1.76526383e-18
 1.76526383e-18
 1.76526383e-18
 1.76526383e-18
 1.76526383e-18
 4.26381445e-19
 4.26381445e-19
 4.26381445e-19
 4.26381445e-19
 4.26381445e-19
 4.26381445e-19
 4.26381445e-19
 4.26381445e-19
 4.26381445e-19
 4.26381445e-19
 4.26381445e-19
 4.26381445e-19
 2.84710330e-20
 6.94782284e-21
 6.94782284e-21
 6.94782284e-21
 6.94782284e-21
 6.94782284e-21
 6.94782284e-21
 2.96931740e-21
 2.96931740e-21
 2.96931740e-21
 2.96931740e-21
 2.96931740e-21
 2.96931740e-21
 2.96931740e-21
 5.27361653e-22
 5.27361653e-22
 5.27361653e-22
 5.27361653e-22
 5.27361653e-22
 1.51524728e-22
 1.53975107e-24
 1.53975107e-24
)
)
1
(
101
(
 1.13728334e-18
 1.13728334e-18
 1.13728334e-18
 1.13728334e-18
 1.13728334e-18
 1.13728334e-18
 1.13728334e-18
 1.13728334e-18
 1.13728334e-18
 1.13728334e-18
 1.13728334e-18
 1.13728334e-18
 1.13728334e-18
 1.13728334e-18
 1.13728334e-18
 1.13728334e-18
 1.13728334e-18
 1.13728334e-18
 1.13728334e-18
 1.13728334e-18
 1.13728334e-18
 1.13728334e-18
 1.13728334e-18
 1.13728334e-18
 1.13728334e-18
 1.13728334e-18
 1.13728334e-18
 1.13728334e-18
 1.13728334e-18
 1.13728334e-18
 1.13728334e-18
 1.13728334e-18
 1.13728334e-18
 1.13728334e-18
 1.13728334e-18
 1.13728334e-18
 1.13728334e-18
 1.13728334e-18
 1.13728334e-18
 1.13728334e-18
 1.13728334e-18
 1.13728334e-18
 1.13728334e-18
 1.13728334e-18
 7.11983136e-18
 7.11983136e-18
 7.11983136e-18
 1.78331566e-18
 1.78331566e-18
 1.78331566e-18
 1.78331566e-18
 1.78331566e-18
 1.78331566e-18
 1.76526383e-18
 1.76526383e-18
 1.76526383e-18
 1.76526383e-18
 1.76526383e-18
 1.76526383e-18
 1.76526383e-18
 1.76526383e-18
 1.76526383e-18
 1.76526383e-18
 1.76526383e-18
 1.76526383e-18
 1.76526383e-18
 1.76526383e-18
 1.76526383e-18
 4.26381445e-19
 4.26381445e-19
 4.26381445e-19
 4.26381445e-19
 4.26381445e-19
 4.26381445e-19
 4.26381445e-19
 4.26381445e-19
 4.26381445e-19
 4.26381445e-19
 4.26381445e-19
 4.26381445e-19
 2.84710330e-20
 6.94782284e-21
 6.94782284e-21
 6.94782284e-21
 6.94782284e-21
 6.94782284e-21
 6.94782284e-21
 6.94782284e-21
 2.96931740e-21
 2.96931740e-21
 2.96931740e-21
 2.96931740e-21
 2.96931740e-21
 2.96931740e-21
 9.79382758e-22
 5.27361653e-22
 5.27361653e-22
 5.27361653e-22
 9.68359658e-23
 9.68359658e-23
 1.53975107e-24
)
)
1
(
101
(
 3.59102912e-18
 3.59102912e-18
 3.59102912e-18
 3.59102912e-18
 3.59102912e-18
 3.59102912e-18
 3.59102912e-18
 3.59102912e-18
 3.59102912e-18
 3.59102912e-18
 3.59102912e-18
 3.59102912e-18
 3.59102912e-18
 3.59102912e-18
 3.59102912e-18
 3.59102912e-18
 3.59102912e-18
 3.59102912e-18
 3.59102912e-18
 3.59102912e-18
 3.59102912e-18
 3.59102912e-18
 3.59102912e-18
 3.59102912e-18
 3.59102912e-18
 3.59102912e-18
 3.59102912e-18
 3.59102912e-18
 3.59102912e-18
 3.59102912e-18
 3.59102912e-18
 3.59102912e-18
 3.59102912e-18
 3.59102912e-18
 3.59102912e-18
 3.59102912e-18
 3.59102912e-18
 3.59102912e-18
 3.59102912e-18
 3.59102912e-18
 3.59102912e-18
 3.59102912e-18
 3.89373992e-14
 7.11983136e-18
 7.11983136e-18
 7.11983136e-18
 7.11983136e-18
 7.11983136e-18
 1.78331566e-18
 1.78331566e-18
 1.78331566e-18
 1.78331566e-18
 1.78331566e-18
 1.78331566e-18
 1.76526383e-18
 1.76526383e-18
 1.76526383e-18
 1.76526383e-18
 1.76526383e-18
 1.76526383e-18
 1.76526383e-18
 1.76526383e-18
 1.76526383e-18
 1.76526383e-18
 1.76526383e-18
 1.76526383e-18
 1.76526383e-18
 1.76526383e-18
 1.76526383e-18
 1.76526383e-18
 4.26381445e-19
 4.26381445e-19
 4.26381445e-19
 4.26381445e-19
 4.26381445e-19
 4.26381445e-19
 4.26381445e-19
 4.26381445e-19
 4.26381445e-19
 4.26381445e-19
 4.26381445e-19
 2.84710330e-20
 2.84710330e-20
 6.94782284e-21
 6.94782284e-21
 6.94782284e-21
 6.94782284e-21
 6.94782284e-21
 6.94782284e-21
 2.96931740e-21
 2.96931740e-21
 2.96931740e-21
 2.96931740e-21
 2.96931740e-21
 2.96931740e-21
 9.79382758e-22
 9.79382758e-22
 3.59072496e-22
 3.59072496e-22
 9.68359658e-23
 9.68359658e-23
)
)
1
(
101
(
 1.18814858e-17
 1.18814858e-17
 1.18814858e-17
 1.18814858e-17
 1.18814858e-17
 1.18814858e-17
 1.18814858e-17
 1.18814858e-17
 1.18814858e-17
 1.18814858e-17
 1.18814858e-17
 1.18814858e-17
 1.18814858e-17
 1.18814858e-17
 1.18814858e-17
 1.18814858e-17
 1.18814858e-17
 1.18814858e-17
 1.18814858e-17
 1.18814858e-17
 1.18814858e-17
 1.18814858e-17
 1.18814858e-17
 1.18814858e-17
 1.18814858e-17
 1.18814858e-17
 1.18814858e-17
 1.18814858e-17
 1.18814858e-17
 1.18814858e-17
 1.18814858e-17
 1.18814858e-17
 1.18814858e-17
 3.89373992e-14
 3.89373992e-14
 3.89373992e-14
 3.89373992e-14
 3.89373992e-14
 3.89373992e-14
 3.89373992e-14
 3.89373992e-14
 3.89373992e-14
 3.89373992e-14
 7.11983136e-18
 7.11983136e-18
 7.11983136e-18
 7.11983136e-18
 7.11983136e-18
 7.11983136e-18
 1.78331566e-18
 1.78331566e-18
 1.78331566e-18
 1.78331566e-18
 1.78331566e-18
 1.78331566e-18
 1.78331566e-18
 1.76526383e-18
 1.76526383e-18
 1.76526383e-18
 1.76526383e-18
 1.76526383e-18
 1.76526383e-18
 1.76526383e-18
 1.76526383e-18
 1.76526383e-18
 1.76526383e-18
 1.76526383e-18
 1.76526383e-18
 1.76526383e-18
 1.76526383e-18
 1.76526383e-18
 4.26381445e-19
 4.26381445e-19
 4.26381445e-19
 4.26381445e-19
 4.26381445e-19
 4.26381445e-19
 4.26381445e-19
 4.26381445e-19
 4.26381445e-19
 4.26381445e-19
 4.26381445e-19
 2.84710330e-20
 2.84710330e-20
 6.94782284e-21
 6.94782284e-21
 6.94782284e-21
 6.94782284e-21
 6.94782284e-21
 6.94782284e-21
 6.94782284e-21
 2.96931740e-21
 2.96931740e-21
 2.96931740e-21
 2.96931740e-21
 2.96931740e-21
 9.79382758e-22
 9.79382758e-22
 3.59072496e-22
 3.59072496e-22
 9.68359658e-23
)
)
1
(
101
(
 4.35922597e-17
 4.35922597e-17
 4.35922597e-17
 4.35922597e-17
 4.35922597e-17
 4.35922597e-17
 4.35922597e-17
 4.35922597e-17
 4.35922597e-17
 4.35922597e-17
 4.35922597e-17
 4.35922597e-17
 4.35922597e-17
 4.35922597e-17
 4.35922597e-17
 4.35922597e-17
 4.35922597e-17
 4.35922597e-17
 4.35922597e-17
 4.35922597e-17
 4.35922597e-17
 4.35922597e-17
 4.35922597e-17
 4.35922597e-17
 4.35922597e-17
 4.35922597e-17
 3.89373992e-14
 3.89373992e-14
 3.89373992e-14
 3.89373992e-14
 3.89373992e-14
 3.89373992e-14
 3.89373992e-14
 3.89373992e-14
 3.89373992e-14
 3.89373992e-14
 3.89373992e-14
 3.89373992e-14
 3.89373992e-14
 3.89373992e-14
 3.89373992e-14
 3.89373992e-14
 3.89373992e-14
 7.11983136e-18
 7.11983136e-18
 7.11983136e-18
 7.11983136e-18
 7.11983136e-18
 7.11983136e-18
 7.11983136e-18
 1.78331566e-18
 1.78331566e-18
 1.78331566e-18
 1.78331566e-18
 1.78331566e-18
 1.78331566e-18
 1.78331566e-18
 1.76526383e-18
 1.76526383e-18
 1.76526383e-18
 1.76526383e-18
 1.76526383e-18
 1.76526383e-18
 1.76526383e-18
 1.76526383e-18
 1.76526383e-18
 1.76526383e-18
 1.76526383e-18
 1.76526383e-18
 1.76526383e-18
 1.76526383e-18
 1.76526383e-18
 4.26381445e-19
 4.26381445e-19
 4.26381445e-19
 4.26381445e-19
 4.26381445e-19
 4.26381445e-19
 4.26381445e-19
 4.26381445e-19
 4.26381445e-19
 4.26381445e-19
 4.26381445e-19
 2.84710330e-20
 2.84710330e-20
 2.84710330e-20
 6.94782284e-21
 6.94782284e-21
 6.94782284e-21
 6.94782284e-21
 6.94782284e-21
 6.94782284e-21
 5.39280478e-21
 2.96931740e-21
 2.96931740e-21
 2.96931740e-21
 7.91439154e-22
 7.91439154e-22
 7.91439154e-22
 3.59072496e-22
 3.59072496e-22
)
)
1
(
101
(
 1.08617657e-16
 1.08617657e-16
 1.08617657e-16
 1.08617657e-16
 1.08617657e-16
 1.08617657e-16
 1.08617657e-16
 1.08617657e-16
 1.08617657e-16
 1.08617657e-16
 1.08617657e-16
 1.08617657e-16
 1.08617657e-16
 1.08617657e-16
 1.08617657e-16
 1.08617657e-16
 1.08617657e-16
 1.08617657e-16
 1.08617657e-16
 3.89373992e-14
 3.89373992e-14
 3.89373992e-14
 3.89373992e-14
 3.89373992e-14
 3.89373992e-14
 3.89373992e-14
 3.89373992e-14
 3.89373992e-14
 3.89373992e-14
 3.89373992e-14
 3.89373992e-14
 3.89373992e-14
 3.89373992e-14
 3.89373992e-14
 3.89373992e-14
 3.89373992e-14
 3.89373992e-14
 3.89373992e-14
 3.89373992e-14
 3.89373992e-14
 3.89373992e-14
 3.89373992e-14
 7.11983136e-18
 7.11983136e-18
 7.11983136e-18
 7.11983136e-18
 7.11983136e-18
 7.11983136e-18
 7.11983136e-18
 7.11983136e-18
 7.11983136e-18
 1.78331566e-18
 1.78331566e-18
 1.78331566e-18
 1.78331566e-18
 1.78331566e-18
 1.78331566e-18
 1.78331566e-18
 1.78331566e-18
 1.76526383e-18
 1.76526383e-18
 1.76526383e-18
 1.76526383e-18
 1.76526383e-18
 1.76526383e-18
 1.76526383e-18
 1.76526383e-18
 1.76526383e-18
 1.76526383e-18
 1.76526383e-18
 1.76526383e-18
 1.76526383e-18
 1.76526383e-18
 4.26381445e-19
 4.26381445e-19
 4.26381445e-19
 4.26381445e-19
 4.26381445e-19
 4.26381445e-19
 4.26381445e-19
 4.26381445e-19
 4.26381445e-19
 4.26381445e-19
 4.26381445e-19
 2.84710330e-20
 2.84710330e-20
 2.84710330e-20
 6.94782284e-21
 6.94782284e-21
 6.94782284e-21
 6.94782284e-21
 6.94782284e-21
 6.94782284e-21
 5.39280478e-21
 5.39280478e-21
 1.21065289e-21
 1.21065289e-21
 7.91439154e-22
 7.91439154e-22
 7.91439154e-22
 7.91439154e-22
)
)
1
(
101
(
 3.68738768e-16
 3.68738768e-16
 3.68738768e-16
 3.68738768e-16
 3.68738768e-16
 3.68738768e-16
 3.68738768e-16
 3.68738768e-16
 3.68738768e-16
 3.68738768e-16
 3.68738768e-16
 3.68738768e-16
 3.68738768e-16
 3.68738768e-16
 3.89373992e-14
 3.89373992e-14
 3.89373992e-14
 3.89373992e-14
 3.89373992e-14
 3.89373992e-14
 3.89373992e-14
 3.89373992e-14
 3.89373992e-14
 3.89373992e-14
 3.89373992e-14
 3.89373992e-14
 3.89373992e-14
 3.89373992e-14
 3.89373992e-14
 3.89373992e-14
 3.89373992e-14
 3.89373992e-14
 3.89373992e-14
 3.89373992e-14
 3.89373992e-14
 3.89373992e-14
 3.89373992e-14
 3.89373992e-14
 3.89373992e-14
 3.89373992e-14
 3.89373992e-14
 3.89373992e-14
 7.11983136e-18
 7.11983136e-18
 7.11983136e-18
 7.11983136e-18
 7.11983136e-18
 7.11983136e-18
 7.11983136e-18
 7.11983136e-18
 7.11983136e-18
 7.11983136e-18
 1.78331566e-18
 1.78331566e-18
 1.78331566e-18
 1.78331566e-18
 1.78331566e-18
 1.78331566e-18
 1.78331566e-18
 1.78331566e-18
 1.76526383e-18
 1.76526383e-18
 1.76526383e-18
 1.76526383e-18
 1.76526383e-18
 1.76526383e-18
 1.76526383e-18
 1.76526383e-18
 1.76526383e-18
 1.76526383e-18
 1.76526383e-18
 1.76526383e-18
 1.76526383e-18
 1.76526383e-18
 1.76526383e-18
 4.26381445e-19
 4.26381445e-19
 4.26381445e-19
 4.26381445e-19
 4.26381445e-19
 4.26381445e-19
 4.26381445e-19
 4.26381445e-19
 4.26381445e-19
 4.26381445e-19
 2.84710330e-20
 2.84710330e-20
 2.84710330e-20
 2.84710330e-20
 6.94782284e-21
 6.94782284e-21
 6.94782284e-21
 6.94782284e-21
 6.94782284e-21
 5.39280478e-21
 5.39280478e-21
 1.21065289e-21
 1.21065289e-21
 7.91439154e-22
 7.91439154e-22
 7.91439154e-22
)
)
1
(
101
(
 9.72790128e-16
 9.72790128e-16
 9.72790128e-16
 9.72790128e-16
 9.72790128e-16
 9.72790128e-16
 9.72790128e-16
 9.72790128e-16
 9.72790128e-16
 3.89373992e-14
 3.89373992e-14
 3.89373992e-14
 3.89373992e-14
 3.89373992e-14
 3.89373992e-14
 3.89373992e-14
 3.89373992e-14
 3.89373992e-14
 3.89373992e-14
 3.89373992e-14
 3.89373992e-14
 3.89373992e-14
 3.89373992e-14
 3.89373992e-14
 3.89373992e-14
 3.89373992e-14
 3.89373992e-14
 3.89373992e-14
 3.89373992e-14
 3.89373992e-14
 3.89373992e-14
 3.89373992e-14
 3.89373992e-14
 3.89373992e-14
 3.89373992e-14
 3.89373992e-14
 3.89373992e-14
 3.89373992e-14
 3.89373992e-14
 3.89373992e-14
 3.89373992e-14
 3.89373992e-14
 7.11983136e-18
 7.11983136e-18
 7.11983136e-18
 7.11983136e-18
 7.11983136e-18
 7.11983136e-18
 7.11983136e-18
 7.11983136e-18
 7.11983136e-18
 7.11983136e-18
 7.11983136e-18
 7.11983136e-18
 1.78331566e-18
 1.78331566e-18
 1.78331566e-18
 1.78331566e-18
 1.78331566e-18
 1.78331566e-18
 1.78331566e-18
 1.78331566e-18
 1.76526383e-18
 1.76526383e-18
 1.76526383e-18
 1.76526383e-18
 1.76526383e-18
 1.76526383e-18
 1.76526383e-18
 1.76526383e-18
 1.76526383e-18
 1.76526383e-18
 1.76526383e-18
 1.76526383e-18
 1.76526383e-18
 1.76526383e-18
 4.26381445e-19
 4.26381445e-19
 4.26381445e-19
 4.26381445e-19
 4.26381445e-19
 4.26381445e-19
 4.26381445e-19
 4.26381445e-19
 4.26381445e-19
 4.26381445e-19
 2.84710330e-20
 2.84710330e-20
 2.84710330e-20
 2.84710330e-20
 1.06953811e-20
 6.94782284e-21
 6.94782284e-21
 6.94782284e-21
 6.94782284e-21
 5.39280478e-21
 5.39280478e-21
 1.21065289e-21
 1.21065289e-21
 7.91439154e-22
 7.91439154e-22
)
)
1
(
101
(
 2.14214161e-15
 2.14214161e-15
 2.14214161e-15
 2.14214161e-15
 2.14214161e-15
 2.14214161e-15
 3.89373992e-14
 3.89373992e-14
 3.89373992e-14
 3.89373992e-14
 3.89373992e-14
 3.89373992e-14
 3.89373992e-14
 3.89373992e-14
 3.89373992e-14
 3.89373992e-14
 3.89373992e-14
 3.89373992e-14
 3.89373992e-14
 3.89373992e-14
 3.89373992e-14
 3.89373992e-14
 3.89373992e-14
 3.89373992e-14
 3.89373992e-14
 3.89373992e-14
 3.89373992e-14
 3.89373992e-14
 3.89373992e-14
 3.89373992e-14
 3.89373992e-14
 3.89373992e-14
 3.89373992e-14
 3.89373992e-14
 3.89373992e-14
 3.89373992e-14
 3.89373992e-14
 3.89373992e-14
 3.89373992e-14
 3.89373992e-14
 3.89373992e-14
 3.89373992e-14
 7.11983136e-18
 7.11983136e-18
 7.11983136e-18
 7.11983136e-18
 7.11983136e-18
 7.11983136e-18
 7.11983136e-18
 7.11983136e-18
 7.11983136e-18
 7.11983136e-18
 7.11983136e-18
 7.11983136e-18
 7.11983136e-18
 1.78331566e-18
 1.78331566e-18
 1.78331566e-18
 1.78331566e-18
 1.78331566e-18
 1.78331566e-18
 1.78331566e-18
 1.78331566e-18
 1.76526383e-18
 1.76526383e-18
 1.76526383e-18
 1.76526383e-18
 1.76526383e-18
 1.76526383e-18
 1.76526383e-18
 1.76526383e-18
 1.76526383e-18
 1.76526383e-18
 1.76526383e-18
 1.76526383e-18
 1.76526383e-18
 1.76526383e-18
 4.26381445e-19
 4.26381445e-19
 4.26381445e-19
 4.26381445e-19
 4.26381445e-19
 4.26381445e-19
 4.26381445e-19
 4.26381445e-19
 4.26381445e-19
 4.26381445e-19
 2.84710330e-20
 2.84710330e-20
 2.84710330e-20
 2.84710330e-20
 1.06953811e-20
 1.06953811e-20
 5.29430641e-21
 5.29430641e-21
 5.29430641e-21
 5.39280478e-21
 5.39280478e-21
 1.21065289e-21
 1.21065289e-21
 7.91439154e-22
)
)
1
(
101
(
 5.23376431e-15
 5.23376431e-15
 5.23376431e-15
 3.89373992e-14
 3.89373992e-14
 3.89373992e-14
 3.89373992e-14
 3.89373992e-14
 3.89373992e-14
 3.89373992e-14
 3.89373992e-14
 3.89373992e-14
 3.89373992e-14
 3.89373992e-14
 3.89373992e-14
 3.89373992e-14
 3.89373992e-14
 3.89373992e-14
 3.89373992e-14
 3.89373992e-14
 3.89373992e-14
 3.89373992e-14
 3.89373992e-14
 3.89373992e-14
 3.89373992e-14
 3.89373992e-14
 3.89373992e-14
 3.89373992e-14
 3.89373992e-14
 3.89373992e-14
 3.89373992e-14
 3.89373992e-14
 3.89373992e-14
 3.89373992e-14
 3.89373992e-14
 3.89373992e-14
 3.89373992e-14
 3.89373992e-14
 3.89373992e-14
 3.89373992e-14
 3.89373992e-14
 1.44244542e-17
 7.11983136e-18
 7.11983136e-18
 7.11983136e-18
 7.11983136e-18
 7.11983136e-18
 7.11983136e-18
 7.11983136e-18
 7.11983136e-18
 7.11983136e-18
 7.11983136e-18
 7.11983136e-18
 7.11983136e-18
 7.11983136e-18
 7.11983136e-18
 1.78331566e-18
 1.78331566e-18
 1.78331566e-18
 1.78331566e-18
 1.78331566e-18
 1.78331566e-18
 1.78331566e-18
 1.78331566e-18
 1.78331566e-18
 1.76526383e-18
 1.76526383e-18
 1.76526383e-18
 1.76526383e-18
 1.76526383e-18
 1.76526383e-18
 1.76526383e-18
 1.76526383e-18
 1.76526383e-18
 1.76526383e-18
 1.76526383e-18
 1.76526383e-18
 1.76526383e-18
 4.26381445e-19
 4.26381445e-19
 4.26381445e-19
 4.26381445e-19
 4.26381445e-19
 4.26381445e-19
 4.26381445e-19
 4.26381445e-19
 4.26381445e-19
 4.26381445e-19
 2.84710330e-20
 2.84710330e-20
 2.84710330e-20
 2.84710330e-20
 1.06953811e-20
 1.06953811e-20
 5.29430641e-21
 5.29430641e-21
 5.29430641e-21
 5.29430641e-21
 5.39280478e-21
 1.21065289e-21
 1.21065289e-21
)
)
1
(
101
(
 6.17535717e-15
 6.17535717e-15
 3.89373992e-14
 3.89373992e-14
 3.89373992e-14
 3.89373992e-14
 3.89373992e-14
 3.89373992e-14
 3.89373992e-14
 3.89373992e-14
 3.89373992e-14
 3.89373992e-14
 3.89373992e-14
 3.89373992e-14
 3.89373992e-14
 3.89373992e-14
 3.89373992e-14
 3.89373992e-14
 3.89373992e-14
 3.89373992e-14
 3.89373992e-14
 3.89373992e-14
 3.89373992e-14
 3.89373992e-14
 3.89373992e-14
 3.89373992e-14
 3.89373992e-14
 3.89373992e-14
 3.89373992e-14
 3.89373992e-14
 3.89373992e-14
 3.89373992e-14
 3.89373992e-14
 3.89373992e-14
 3.89373992e-14
 3.89373992e-14
 3.89373992e-14
 3.89373992e-14
 3.89373992e-14
 3.89373992e-14
 3.89373992e-14
 1.44244542e-17
 1.44244542e-17
 7.11983136e-18
 7.11983136e-18
 7.11983136e-18
 7.11983136e-18
 7.11983136e-18
 7.11983136e-18
 7.11983136e-18
 7.11983136e-18
 7.11983136e-18
 7.11983136e-18
 7.11983136e-18
 7.11983136e-18
 7.11983136e-18
 7.11983136e-18
 1.78331566e-18
 1.78331566e-18
 1.78331566e-18
 1.78331566e-18
 1.78331566e-18
 1.78331566e-18
 1.78331566e-18
 1.78331566e-18
 1.78331566e-18
 1.76526383e-18
 1.76526383e-18
 1.76526383e-18
 1.76526383e-18
 1.76526383e-18
 1.76526383e-18
 1.76526383e-18
 1.76526383e-18
 1.76526383e-18
 1.76526383e-18
 1.76526383e-18
 1.76526383e-18
 1.76526383e-18
 1.76526383e-18
 4.26381445e-19
 4.26381445e-19
 4.26381445e-19
 4.26381445e-19
 4.26381445e-19
 4.26381445e-19
 4.26381445e-19
 4.26381445e-19
 3.20006818e-20
 2.84710330e-20
 2.84710330e-20
 2.84710330e-20
 1.66327255e-22
 1.66327255e-22
 1.66327255e-22
 5.29430641e-21
 5.29430641e-21
 5.29430641e-21
 5.29430641e-21
 5.29430641e-21
 1.21065289e-21
)
)
1
(
101
(
 1.70697584e-16
 3.89373992e-14
 3.89373992e-14
 3.89373992e-14
 3.89373992e-14
 3.89373992e-14
 3.89373992e-14
 3.89373992e-14
 3.89373992e-14
 3.89373992e-14
 3.89373992e-14
 3.89373992e-14
 3.89373992e-14
 3.89373992e-14
 3.89373992e-14
 3.89373992e-14
 3.89373992e-14
 3.89373992e-14
 3.89373992e-14
 3.89373992e-14
 3.89373992e-14
 3.89373992e-14
 3.89373992e-14
 3.89373992e-14
 3.89373992e-14
 3.89373992e-14
 3.89373992e-14
 3.89373992e-14
 3.89373992e-14
 3.89373992e-14
 3.89373992e-14
 3.89373992e-14
 3.89373992e-14
 3.89373992e-14
 3.89373992e-14
 3.89373992e-14
 3.89373992e-14
 3.89373992e-14
 3.89373992e-14
 3.89373992e-14
 1.44244542e-17
 1.44244542e-17
 1.44244542e-17
 1.44244542e-17
 7.11983136e-18
 7.11983136e-18
 7.11983136e-18
 7.11983136e-18
 7.11983136e-18
 7.11983136e-18
 7.11983136e-18
 7.11983136e-18
 7.11983136e-18
 7.11983136e-18
 7.11983136e-18
 7.11983136e-18
 7.11983136e-18
 7.11983136e-18
 1.78331566e-18
 1.78331566e-18
 1.78331566e-18
 1.78331566e-18
 1.78331566e-18
 1.78331566e-18
 1.78331566e-18
 1.78331566e-18
 1.78331566e-18
 1.78331566e-18
 1.76526383e-18
 1.76526383e-18
 1.76526383e-18
 1.76526383e-18
 1.76526383e-18
 1.76526383e-18
 1.76526383e-18
 1.76526383e-18
 1.76526383e-18
 1.76526383e-18
 1.76526383e-18
 1.76526383e-18
 1.76526383e-18
 1.95977680e-19
 4.26381445e-19
 4.26381445e-19
 4.26381445e-19
 4.26381445e-19
 4.26381445e-19
 4.26381445e-19
 4.26381445e-19
 3.20006818e-20
 3.20006818e-20
 5.93363200e-21
 5.93363200e-21
 1.66327255e-22
 1.66327255e-22
 1.66327255e-22
 1.66327255e-22
 5.29430641e-21
 5.29430641e-21
 5.29430641e-21
 5.29430641e-21
)
)
1
(
101
(
 1.70697584e-16
 3.81950939e-14
 3.81950939e-14
 3.81950939e-14
 3.81950939e-14
 3.81950939e-14
 3.81950939e-14
 3.81950939e-14
 3.81950939e-14
 3.81950939e-14
 3.81950939e-14
 3.81950939e-14
 3.81950939e-14
 3.81950939e-14
 3.81950939e-14
 3.81950939e-14
 3.81950939e-14
 3.81950939e-14
 3.81950939e-14
 3.81950939e-14
 3.81950939e-14
 3.81950939e-14
 3.81950939e-14
 3.81950939e-14
 3.81950939e-14
 3.81950939e-14
 3.81950939e-14
 3.81950939e-14
 3.81950939e-14
 3.81950939e-14
 3.81950939e-14
 3.81950939e-14
 3.81950939e-14
 3.81950939e-14
 3.81950939e-14
 3.81950939e-14
 3.81950939e-14
 3.81950939e-14
 3.81950939e-14
 3.81950939e-14
 1.44244542e-17
 1.44244542e-17
 1.44244542e-17
 1.44244542e-17
 1.44244542e-17
 7.11983136e-18
 7.11983136e-18
 7.11983136e-18
 7.11983136e-18
 7.11983136e-18
 7.11983136e-18
 7.11983136e-18
 7.11983136e-18
 7.11983136e-18
 7.11983136e-18
 7.11983136e-18
 7.11983136e-18
 7.11983136e-18
 7.11983136e-18
 1.78331566e-18
 1.78331566e-18
 1.78331566e-18
 1.78331566e-18
 1.78331566e-18
 1.78331566e-18
 1.78331566e-18
 1.78331566e-18
 1.78331566e-18
 1.78331566e-18
 1.76526383e-18
 1.76526383e-18
 1.76526383e-18
 1.76526383e-18
 1.76526383e-18
 1.76526383e-18
 1.76526383e-18
 1.76526383e-18
 1.76526383e-18
 1.76526383e-18
 1.76526383e-18
 1.76526383e-18
 1.76526383e-18
 1.95977680e-19
 1.95977680e-19
 4.26381445e-19
 4.26381445e-19
 4.26381445e-19
 4.26381445e-19
 4.26381445e-19
 3.20006818e-20
 3.20006818e-20
 3.20006818e-20
 5.93363200e-21
 5.93363200e-21
 1.66327255e-22
 1.66327255e-22
 1.66327255e-22
 1.66327255e-22
 1.66327255e-22
 5.29430641e-21
 5.29430641e-21
)
)
1
(
101
(
 8.38549318e-14
 8.38549318e-14
 8.38549318e-14
 8.38549318e-14
 8.38549318e-14
 8.38549318e-14
 8.38549318e-14
 8.38549318e-14
 8.38549318e-14
 8.38549318e-14
 8.38549318e-14
 8.38549318e-14
 8.38549318e-14
 8.38549318e-14
 8.38549318e-14
 8.38549318e-14
 8.38549318e-14
 8.38549318e-14
 8.38549318e-14
 8.38549318e-14
 8.38549318e-14
 8.38549318e-14
 8.38549318e-14
 8.38549318e-14
 8.38549318e-14
 8.38549318e-14
 8.38549318e-14
 8.38549318e-14
 8.38549318e-14
 8.38549318e-14
 8.38549318e-14
 8.38549318e-14
 8.38549318e-14
 8.38549318e-14
 8.38549318e-14
 8.38549318e-14
 8.38549318e-14
 8.38549318e-14
 8.38549318e-14
 8.38549318e-14
 1.44244542e-17
 1.44244542e-17
 1.44244542e-17
 1.44244542e-17
 1.44244542e-17
 1.44244542e-17
 7.11983136e-18
 7.11983136e-18
 7.11983136e-18
 7.11983136e-18
 7.11983136e-18
 7.11983136e-18
 7.11983136e-18
 7.11983136e-18
 7.11983136e-18
 7.11983136e-18
 7.11983136e-18
 7.11983136e-18
 7.11983136e-18
 7.11983136e-18
 7.11983136e-18
 1.78331566e-18
 1.78331566e-18
 1.78331566e-18
 1.78331566e-18
 1.78331566e-18
 1.78331566e-18
 1.78331566e-18
 1.78331566e-18
 1.78331566e-18
 1.78331566e-18
 1.76526383e-18
 1.76526383e-18
 1.76526383e-18
 1.76526383e-18
 1.76526383e-18
 1.76526383e-18
 1.76526383e-18
 1.76526383e-18
 1.76526383e-18
 1.76526383e-18
 1.76526383e-18
 1.76526383e-18
 1.95977680e-19
 1.95977680e-19
 1.95977680e-19
 4.26381445e-19
 4.26381445e-19
 4.26381445e-19
 4.26381445e-19
 3.20006818e-20
 3.20006818e-20
 3.20006818e-20
 5.93363200e-21
 5.93363200e-21
 1.66327255e-22
 1.66327255e-22
 1.66327255e-22
 1.66327255e-22
 1.66327255e-22
 1.66327255e-22
)
)
1
(
101
(
 1.63596850e-13
 1.63596850e-13
 1.63596850e-13
 1.63596850e-13
 1.63596850e-13
 1.63596850e-13
 1.63596850e-13
 1.63596850e-13
 1.63596850e-13
 1.63596850e-13
 1.63596850e-13
 1.63596850e-13
 1.63596850e-13
 1.63596850e-13
 1.63596850e-13
 1.63596850e-13
 1.63596850e-13
 1.63596850e-13
 1.63596850e-13
 1.63596850e-13
 1.63596850e-13
 1.63596850e-13
 1.63596850e-13
 1.63596850e-13
 1.63596850e-13
 1.63596850e-13
 1.63596850e-13
 1.63596850e-13
 1.63596850e-13
 1.63596850e-13
 1.63596850e-13
 1.63596850e-13
 1.63596850e-13
 1.63596850e-13
 1.63596850e-13
 1.63596850e-13
 1.63596850e-13
 1.63596850e-13
 1.63596850e-13
 1.44244542e-17
 1.44244542e-17
 1.44244542e-17
 1.44244542e-17
 1.44244542e-17
 1.44244542e-17
 1.44244542e-17
 1.44244542e-17
 1.44244542e-17
 7.11983136e-18
 7.11983136e-18
 7.11983136e-18
 7.11983136e-18
 7.11983136e-18
 7.11983136e-18
 7.11983136e-18
 7.11983136e-18
 7.11983136e-18
 7.11983136e-18
 7.11983136e-18
 7.11983136e-18
 7.11983136e-18
 7.11983136e-18
 1.78331566e-18
 1.78331566e-18
 1.78331566e-18
 1.78331566e-18
 1.78331566e-18
 1.78331566e-18
 1.78331566e-18
 1.78331566e-18
 1.78331566e-18
 1.78331566e-18
 1.76526383e-18
 1.76526383e-18
 1.76526383e-18
 1.76526383e-18
 1.76526383e-18
 1.76526383e-18
 1.76526383e-18
 1.76526383e-18
 1.76526383e-18
 1.76526383e-18
 1.76526383e-18
 1.76526383e-18
 1.95977680e-19
 1.95977680e-19
 1.95977680e-19
 1.95977680e-19
 8.42864313e-20
 8.42864313e-20
 8.42864313e-20
 3.20006818e-20
 3.20006818e-20
 3.20006818e-20
 5.93363200e-21
 5.93363200e-21
 1.66327255e-22
 1.66327255e-22
 1.66327255e-22