/*--------------------------------*- C++ -*----------------------------------*\
| =========                 |                                                 |
| \\      /  F ield        | OpenFOAM: The Open Source CFD Toolbox           |
|  \\    /   O peration    | Version:  7                                     |
|   \\  /    A nd          | Web:      http://www.OpenFOAM.com               |
|    \\/     M anipulation |                                                 |
\*---------------------------------------------------------------------------*/

FoamFile
{
    version     2.0;
    format      ascii;
    class       dictionary;
    object      Y_NO_table;
}

Y_NO_table
2
(
101
(
1
(
101
(
 1.28654582e-08
 1.28654582e-08
 1.28654582e-08
 1.28654582e-08
 1.28654582e-08
 1.28654582e-08
 1.28654582e-08
 1.28654582e-08
 1.28654582e-08
 1.28654582e-08
 1.28654582e-08
 1.28654582e-08
 1.28654582e-08
 1.28654582e-08
 1.28654582e-08
 1.28654582e-08
 1.28654582e-08
 1.28654582e-08
 1.28654582e-08
 1.28654582e-08
 1.28654582e-08
 1.28654582e-08
 1.28654582e-08
 1.28654582e-08
 1.28654582e-08
 1.28654582e-08
 1.28654582e-08
 1.28654582e-08
 1.28654582e-08
 1.28654582e-08
 1.28654582e-08
 1.28654582e-08
 1.28654582e-08
 1.28654582e-08
 1.28654582e-08
 1.28654582e-08
 1.28654582e-08
 1.28654582e-08
 1.28654582e-08
 1.28654582e-08
 1.28654582e-08
 1.28654582e-08
 1.28654582e-08
 1.28654582e-08
 1.28654582e-08
 2.24943105e-05
 2.24943105e-05
 7.99311992e-06
 7.99311992e-06
 7.99311992e-06
 7.99311992e-06
 7.99311992e-06
 7.99311992e-06
 7.99311992e-06
 7.99311992e-06
 7.99311992e-06
 7.99311992e-06
 7.99311992e-06
 7.99311992e-06
 7.99311992e-06
 7.99311992e-06
 7.99311992e-06
 7.99311992e-06
 5.72075452e-06
 5.72075452e-06
 5.72075452e-06
 5.72075452e-06
 5.72075452e-06
 5.72075452e-06
 5.72075452e-06
 5.72075452e-06
 5.72075452e-06
 5.72075452e-06
 5.72075452e-06
 5.72075452e-06
 7.74408311e-06
 7.74408311e-06
 7.74408311e-06
 7.74408311e-06
 7.74408311e-06
 7.74408311e-06
 7.74408311e-06
 4.85630551e-06
 4.85630551e-06
 4.85630551e-06
 4.85630551e-06
 4.85630551e-06
 4.85630551e-06
 2.71717944e-06
 2.71717944e-06
 2.71717944e-06
 2.71717944e-06
 2.71717944e-06
 2.71717944e-06
 2.71717944e-06
 6.26200452e-07
 6.26200452e-07
 6.26200452e-07
 6.26200452e-07
 6.26200452e-07
 8.19569453e-09
)
)
1
(
101
(
 5.95636941e-07
 5.95636941e-07
 5.95636941e-07
 5.95636941e-07
 5.95636941e-07
 5.95636941e-07
 5.95636941e-07
 5.95636941e-07
 5.95636941e-07
 5.95636941e-07
 5.95636941e-07
 5.95636941e-07
 5.95636941e-07
 5.95636941e-07
 5.95636941e-07
 5.95636941e-07
 5.95636941e-07
 5.95636941e-07
 5.95636941e-07
 5.95636941e-07
 5.95636941e-07
 5.95636941e-07
 5.95636941e-07
 5.95636941e-07
 5.95636941e-07
 5.95636941e-07
 5.95636941e-07
 5.95636941e-07
 5.95636941e-07
 5.95636941e-07
 5.95636941e-07
 5.95636941e-07
 5.95636941e-07
 5.95636941e-07
 5.95636941e-07
 5.95636941e-07
 5.95636941e-07
 5.95636941e-07
 5.95636941e-07
 5.95636941e-07
 5.95636941e-07
 5.95636941e-07
 5.95636941e-07
 5.95636941e-07
 5.95636941e-07
 2.24943105e-05
 2.24943105e-05
 2.24943105e-05
 7.99311992e-06
 7.99311992e-06
 7.99311992e-06
 7.99311992e-06
 7.99311992e-06
 7.99311992e-06
 7.99311992e-06
 7.99311992e-06
 7.99311992e-06
 7.99311992e-06
 7.99311992e-06
 7.99311992e-06
 7.99311992e-06
 7.99311992e-06
 7.99311992e-06
 7.99311992e-06
 7.99311992e-06
 5.72075452e-06
 5.72075452e-06
 5.72075452e-06
 5.72075452e-06
 5.72075452e-06
 5.72075452e-06
 5.72075452e-06
 5.72075452e-06
 5.72075452e-06
 5.72075452e-06
 5.72075452e-06
 5.72075452e-06
 7.74408311e-06
 7.74408311e-06
 7.74408311e-06
 7.74408311e-06
 7.74408311e-06
 7.74408311e-06
 4.85630551e-06
 4.85630551e-06
 4.85630551e-06
 4.85630551e-06
 4.85630551e-06
 4.85630551e-06
 4.85630551e-06
 2.71717944e-06
 2.71717944e-06
 2.71717944e-06
 2.71717944e-06
 2.71717944e-06
 2.71717944e-06
 1.78047536e-06
 6.26200452e-07
 6.26200452e-07
 6.26200452e-07
 3.53010955e-07
)
)
1
(
101
(
 1.36535925e-06
 1.36535925e-06
 1.36535925e-06
 1.36535925e-06
 1.36535925e-06
 1.36535925e-06
 1.36535925e-06
 1.36535925e-06
 1.36535925e-06
 1.36535925e-06
 1.36535925e-06
 1.36535925e-06
 1.36535925e-06
 1.36535925e-06
 1.36535925e-06
 1.36535925e-06
 1.36535925e-06
 1.36535925e-06
 1.36535925e-06
 1.36535925e-06
 1.36535925e-06
 1.36535925e-06
 1.36535925e-06
 1.36535925e-06
 1.36535925e-06
 1.36535925e-06
 1.36535925e-06
 1.36535925e-06
 1.36535925e-06
 1.36535925e-06
 1.36535925e-06
 1.36535925e-06
 1.36535925e-06
 1.36535925e-06
 1.36535925e-06
 1.36535925e-06
 1.36535925e-06
 1.36535925e-06
 1.36535925e-06
 1.36535925e-06
 1.36535925e-06
 1.36535925e-06
 1.36535925e-06
 1.36535925e-06
 2.24943105e-05
 2.24943105e-05
 2.24943105e-05
 2.24943105e-05
 2.24943105e-05
 2.24943105e-05
 7.99311992e-06
 7.99311992e-06
 7.99311992e-06
 7.99311992e-06
 7.99311992e-06
 7.99311992e-06
 7.99311992e-06
 7.99311992e-06
 7.99311992e-06
 7.99311992e-06
 7.99311992e-06
 7.99311992e-06
 7.99311992e-06
 7.99311992e-06
 7.99311992e-06
 7.99311992e-06
 5.72075452e-06
 5.72075452e-06
 5.72075452e-06
 5.72075452e-06
 5.72075452e-06
 5.72075452e-06
 5.72075452e-06
 5.72075452e-06
 5.72075452e-06
 5.72075452e-06
 5.72075452e-06
 5.72075452e-06
 7.74408311e-06
 7.74408311e-06
 7.74408311e-06
 7.74408311e-06
 7.74408311e-06
 7.74408311e-06
 7.74408311e-06
 4.85630551e-06
 4.85630551e-06
 4.85630551e-06
 4.85630551e-06
 4.85630551e-06
 4.85630551e-06
 2.71717944e-06
 2.71717944e-06
 2.71717944e-06
 2.71717944e-06
 2.71717944e-06
 2.71717944e-06
 1.78047536e-06
 1.78047536e-06
 1.08255225e-06
 1.08255225e-06
)
)
1
(
101
(
 2.30943740e-06
 2.30943740e-06
 2.30943740e-06
 2.30943740e-06
 2.30943740e-06
 2.30943740e-06
 2.30943740e-06
 2.30943740e-06
 2.30943740e-06
 2.30943740e-06
 2.30943740e-06
 2.30943740e-06
 2.30943740e-06
 2.30943740e-06
 2.30943740e-06
 2.30943740e-06
 2.30943740e-06
 2.30943740e-06
 2.30943740e-06
 2.30943740e-06
 2.30943740e-06
 2.30943740e-06
 2.30943740e-06
 2.30943740e-06
 2.30943740e-06
 2.30943740e-06
 2.30943740e-06
 2.30943740e-06
 2.30943740e-06
 2.30943740e-06
 2.30943740e-06
 2.30943740e-06
 2.30943740e-06
 2.30943740e-06
 2.30943740e-06
 2.30943740e-06
 2.30943740e-06
 2.30943740e-06
 2.30943740e-06
 2.30943740e-06
 2.30943740e-06
 2.30943740e-06
 2.30943740e-06
 2.30943740e-06
 3.05802923e-05
 2.24943105e-05
 2.24943105e-05
 2.24943105e-05
 2.24943105e-05
 2.24943105e-05
 2.24943105e-05
 7.99311992e-06
 7.99311992e-06
 7.99311992e-06
 7.99311992e-06
 7.99311992e-06
 7.99311992e-06
 7.99311992e-06
 7.99311992e-06
 7.99311992e-06
 7.99311992e-06
 7.99311992e-06
 7.99311992e-06
 7.99311992e-06
 7.99311992e-06
 7.99311992e-06
 7.99311992e-06
 5.72075452e-06
 5.72075452e-06
 5.72075452e-06
 5.72075452e-06
 5.72075452e-06
 5.72075452e-06
 5.72075452e-06
 5.72075452e-06
 5.72075452e-06
 5.72075452e-06
 5.72075452e-06
 5.72075452e-06
 9.46126628e-06
 7.74408311e-06
 7.74408311e-06
 7.74408311e-06
 7.74408311e-06
 7.74408311e-06
 7.74408311e-06
 4.85630551e-06
 4.85630551e-06
 4.85630551e-06
 4.85630551e-06
 4.85630551e-06
 4.85630551e-06
 4.85630551e-06
 2.71717944e-06
 2.71717944e-06
 2.71717944e-06
 2.71717944e-06
 2.71717944e-06
 1.78047536e-06
 1.52404956e-06
 1.52404956e-06
)
)
1
(
101
(
 3.04464722e-06
 3.04464722e-06
 3.04464722e-06
 3.04464722e-06
 3.04464722e-06
 3.04464722e-06
 3.04464722e-06
 3.04464722e-06
 3.04464722e-06
 3.04464722e-06
 3.04464722e-06
 3.04464722e-06
 3.04464722e-06
 3.04464722e-06
 3.04464722e-06
 3.04464722e-06
 3.04464722e-06
 3.04464722e-06
 3.04464722e-06
 3.04464722e-06
 3.04464722e-06
 3.04464722e-06
 3.04464722e-06
 3.04464722e-06
 3.04464722e-06
 3.04464722e-06
 3.04464722e-06
 3.04464722e-06
 3.04464722e-06
 3.04464722e-06
 3.04464722e-06
 3.04464722e-06
 3.04464722e-06
 3.04464722e-06
 3.04464722e-06
 3.04464722e-06
 3.04464722e-06
 3.04464722e-06
 3.04464722e-06
 3.04464722e-06
 3.04464722e-06
 3.04464722e-06
 3.04464722e-06
 3.04464722e-06
 3.05802923e-05
 3.05802923e-05
 3.05802923e-05
 2.24943105e-05
 2.24943105e-05
 2.24943105e-05
 2.24943105e-05
 2.24943105e-05
 2.24943105e-05
 7.99311992e-06
 7.99311992e-06
 7.99311992e-06
 7.99311992e-06
 7.99311992e-06
 7.99311992e-06
 7.99311992e-06
 7.99311992e-06
 7.99311992e-06
 7.99311992e-06
 7.99311992e-06
 7.99311992e-06
 7.99311992e-06
 7.99311992e-06
 7.99311992e-06
 5.72075452e-06
 5.72075452e-06
 5.72075452e-06
 5.72075452e-06
 5.72075452e-06
 5.72075452e-06
 5.72075452e-06
 5.72075452e-06
 5.72075452e-06
 5.72075452e-06
 5.72075452e-06
 5.72075452e-06
 9.46126628e-06
 7.74408311e-06
 7.74408311e-06
 7.74408311e-06
 7.74408311e-06
 7.74408311e-06
 7.74408311e-06
 7.74408311e-06
 4.85630551e-06
 4.85630551e-06
 4.85630551e-06
 4.85630551e-06
 4.85630551e-06
 4.85630551e-06
 3.72765937e-06
 2.71717944e-06
 2.71717944e-06
 2.71717944e-06
 2.44588946e-06
 2.44588946e-06
 1.52404956e-06
)
)
1
(
101
(
 3.98815776e-06
 3.98815776e-06
 3.98815776e-06
 3.98815776e-06
 3.98815776e-06
 3.98815776e-06
 3.98815776e-06
 3.98815776e-06
 3.98815776e-06
 3.98815776e-06
 3.98815776e-06
 3.98815776e-06
 3.98815776e-06
 3.98815776e-06
 3.98815776e-06
 3.98815776e-06
 3.98815776e-06
 3.98815776e-06
 3.98815776e-06
 3.98815776e-06
 3.98815776e-06
 3.98815776e-06
 3.98815776e-06
 3.98815776e-06
 3.98815776e-06
 3.98815776e-06
 3.98815776e-06
 3.98815776e-06
 3.98815776e-06
 3.98815776e-06
 3.98815776e-06
 3.98815776e-06
 3.98815776e-06
 3.98815776e-06
 3.98815776e-06
 3.98815776e-06
 3.98815776e-06
 3.98815776e-06
 3.98815776e-06
 3.98815776e-06
 3.98815776e-06
 3.98815776e-06
 1.08167062e-05
 3.05802923e-05
 3.05802923e-05
 3.05802923e-05
 3.05802923e-05
 3.05802923e-05
 2.24943105e-05
 2.24943105e-05
 2.24943105e-05
 2.24943105e-05
 2.24943105e-05
 2.24943105e-05
 7.99311992e-06
 7.99311992e-06
 7.99311992e-06
 7.99311992e-06
 7.99311992e-06
 7.99311992e-06
 7.99311992e-06
 7.99311992e-06
 7.99311992e-06
 7.99311992e-06
 7.99311992e-06
 7.99311992e-06
 7.99311992e-06
 7.99311992e-06
 7.99311992e-06
 7.99311992e-06
 5.72075452e-06
 5.72075452e-06
 5.72075452e-06
 5.72075452e-06
 5.72075452e-06
 5.72075452e-06
 5.72075452e-06
 5.72075452e-06
 5.72075452e-06
 5.72075452e-06
 5.72075452e-06
 9.46126628e-06
 9.46126628e-06
 7.74408311e-06
 7.74408311e-06
 7.74408311e-06
 7.74408311e-06
 7.74408311e-06
 7.74408311e-06
 4.85630551e-06
 4.85630551e-06
 4.85630551e-06
 4.85630551e-06
 4.85630551e-06
 4.85630551e-06
 3.72765937e-06
 3.72765937e-06
 3.06422423e-06
 3.06422423e-06
 2.44588946e-06
 2.44588946e-06
)
)
1
(
101
(
 5.06936516e-06
 5.06936516e-06
 5.06936516e-06
 5.06936516e-06
 5.06936516e-06
 5.06936516e-06
 5.06936516e-06
 5.06936516e-06
 5.06936516e-06
 5.06936516e-06
 5.06936516e-06
 5.06936516e-06
 5.06936516e-06
 5.06936516e-06
 5.06936516e-06
 5.06936516e-06
 5.06936516e-06
 5.06936516e-06
 5.06936516e-06
 5.06936516e-06
 5.06936516e-06
 5.06936516e-06
 5.06936516e-06
 5.06936516e-06
 5.06936516e-06
 5.06936516e-06
 5.06936516e-06
 5.06936516e-06
 5.06936516e-06
 5.06936516e-06
 5.06936516e-06
 5.06936516e-06
 5.06936516e-06
 1.08167062e-05
 1.08167062e-05
 1.08167062e-05
 1.08167062e-05
 1.08167062e-05
 1.08167062e-05
 1.08167062e-05
 1.08167062e-05
 1.08167062e-05
 1.08167062e-05
 3.05802923e-05
 3.05802923e-05
 3.05802923e-05
 3.05802923e-05
 3.05802923e-05
 3.05802923e-05
 2.24943105e-05
 2.24943105e-05
 2.24943105e-05
 2.24943105e-05
 2.24943105e-05
 2.24943105e-05
 2.24943105e-05
 7.99311992e-06
 7.99311992e-06
 7.99311992e-06
 7.99311992e-06
 7.99311992e-06
 7.99311992e-06
 7.99311992e-06
 7.99311992e-06
 7.99311992e-06
 7.99311992e-06
 7.99311992e-06
 7.99311992e-06
 7.99311992e-06
 7.99311992e-06
 7.99311992e-06
 5.72075452e-06
 5.72075452e-06
 5.72075452e-06
 5.72075452e-06
 5.72075452e-06
 5.72075452e-06
 5.72075452e-06
 5.72075452e-06
 5.72075452e-06
 5.72075452e-06
 5.72075452e-06
 9.46126628e-06
 9.46126628e-06
 7.74408311e-06
 7.74408311e-06
 7.74408311e-06
 7.74408311e-06
 7.74408311e-06
 7.74408311e-06
 7.74408311e-06
 4.85630551e-06
 4.85630551e-06
 4.85630551e-06
 4.85630551e-06
 4.85630551e-06
 3.72765937e-06
 3.72765937e-06
 3.06422423e-06
 3.06422423e-06
 2.44588946e-06
)
)
1
(
101
(
 5.85423197e-06
 5.85423197e-06
 5.85423197e-06
 5.85423197e-06
 5.85423197e-06
 5.85423197e-06
 5.85423197e-06
 5.85423197e-06
 5.85423197e-06
 5.85423197e-06
 5.85423197e-06
 5.85423197e-06
 5.85423197e-06
 5.85423197e-06
 5.85423197e-06
 5.85423197e-06
 5.85423197e-06
 5.85423197e-06
 5.85423197e-06
 5.85423197e-06
 5.85423197e-06
 5.85423197e-06
 5.85423197e-06
 5.85423197e-06
 5.85423197e-06
 5.85423197e-06
 1.08167062e-05
 1.08167062e-05
 1.08167062e-05
 1.08167062e-05
 1.08167062e-05
 1.08167062e-05
 1.08167062e-05
 1.08167062e-05
 1.08167062e-05
 1.08167062e-05
 1.08167062e-05
 1.08167062e-05
 1.08167062e-05
 1.08167062e-05
 1.08167062e-05
 1.08167062e-05
 1.08167062e-05
 3.05802923e-05
 3.05802923e-05
 3.05802923e-05
 3.05802923e-05
 3.05802923e-05
 3.05802923e-05
 3.05802923e-05
 2.24943105e-05
 2.24943105e-05
 2.24943105e-05
 2.24943105e-05
 2.24943105e-05
 2.24943105e-05
 2.24943105e-05
 7.99311992e-06
 7.99311992e-06
 7.99311992e-06
 7.99311992e-06
 7.99311992e-06
 7.99311992e-06
 7.99311992e-06
 7.99311992e-06
 7.99311992e-06
 7.99311992e-06
 7.99311992e-06
 7.99311992e-06
 7.99311992e-06
 7.99311992e-06
 7.99311992e-06
 5.72075452e-06
 5.72075452e-06
 5.72075452e-06
 5.72075452e-06
 5.72075452e-06
 5.72075452e-06
 5.72075452e-06
 5.72075452e-06
 5.72075452e-06
 5.72075452e-06
 5.72075452e-06
 9.46126628e-06
 9.46126628e-06
 9.46126628e-06
 7.74408311e-06
 7.74408311e-06
 7.74408311e-06
 7.74408311e-06
 7.74408311e-06
 7.74408311e-06
 5.99553346e-06
 4.85630551e-06
 4.85630551e-06
 4.85630551e-06
 4.30462728e-06
 4.30462728e-06
 4.30462728e-06
 3.06422423e-06
 3.06422423e-06
)
)
1
(
101
(
 7.13064178e-06
 7.13064178e-06
 7.13064178e-06
 7.13064178e-06
 7.13064178e-06
 7.13064178e-06
 7.13064178e-06
 7.13064178e-06
 7.13064178e-06
 7.13064178e-06
 7.13064178e-06
 7.13064178e-06
 7.13064178e-06
 7.13064178e-06
 7.13064178e-06
 7.13064178e-06
 7.13064178e-06
 7.13064178e-06
 7.13064178e-06
 1.08167062e-05
 1.08167062e-05
 1.08167062e-05
 1.08167062e-05
 1.08167062e-05
 1.08167062e-05
 1.08167062e-05
 1.08167062e-05
 1.08167062e-05
 1.08167062e-05
 1.08167062e-05
 1.08167062e-05
 1.08167062e-05
 1.08167062e-05
 1.08167062e-05
 1.08167062e-05
 1.08167062e-05
 1.08167062e-05
 1.08167062e-05
 1.08167062e-05
 1.08167062e-05
 1.08167062e-05
 1.08167062e-05
 3.05802923e-05
 3.05802923e-05
 3.05802923e-05
 3.05802923e-05
 3.05802923e-05
 3.05802923e-05
 3.05802923e-05
 3.05802923e-05
 3.05802923e-05
 2.24943105e-05
 2.24943105e-05
 2.24943105e-05
 2.24943105e-05
 2.24943105e-05
 2.24943105e-05
 2.24943105e-05
 2.24943105e-05
 7.99311992e-06
 7.99311992e-06
 7.99311992e-06
 7.99311992e-06
 7.99311992e-06
 7.99311992e-06
 7.99311992e-06
 7.99311992e-06
 7.99311992e-06
 7.99311992e-06
 7.99311992e-06
 7.99311992e-06
 7.99311992e-06
 7.99311992e-06
 5.72075452e-06
 5.72075452e-06
 5.72075452e-06
 5.72075452e-06
 5.72075452e-06
 5.72075452e-06
 5.72075452e-06
 5.72075452e-06
 5.72075452e-06
 5.72075452e-06
 5.72075452e-06
 9.46126628e-06
 9.46126628e-06
 9.46126628e-06
 7.74408311e-06
 7.74408311e-06
 7.74408311e-06
 7.74408311e-06
 7.74408311e-06
 7.74408311e-06
 5.99553346e-06
 5.99553346e-06
 5.30527595e-06
 5.30527595e-06
 4.30462728e-06
 4.30462728e-06
 4.30462728e-06
 4.30462728e-06
)
)
1
(
101
(
 7.88784439e-06
 7.88784439e-06
 7.88784439e-06
 7.88784439e-06
 7.88784439e-06
 7.88784439e-06
 7.88784439e-06
 7.88784439e-06
 7.88784439e-06
 7.88784439e-06
 7.88784439e-06
 7.88784439e-06
 7.88784439e-06
 7.88784439e-06
 1.08167062e-05
 1.08167062e-05
 1.08167062e-05
 1.08167062e-05
 1.08167062e-05
 1.08167062e-05
 1.08167062e-05
 1.08167062e-05
 1.08167062e-05
 1.08167062e-05
 1.08167062e-05
 1.08167062e-05
 1.08167062e-05
 1.08167062e-05
 1.08167062e-05
 1.08167062e-05
 1.08167062e-05
 1.08167062e-05
 1.08167062e-05
 1.08167062e-05
 1.08167062e-05
 1.08167062e-05
 1.08167062e-05
 1.08167062e-05
 1.08167062e-05
 1.08167062e-05
 1.08167062e-05
 1.08167062e-05
 3.05802923e-05
 3.05802923e-05
 3.05802923e-05
 3.05802923e-05
 3.05802923e-05
 3.05802923e-05
 3.05802923e-05
 3.05802923e-05
 3.05802923e-05
 3.05802923e-05
 2.24943105e-05
 2.24943105e-05
 2.24943105e-05
 2.24943105e-05
 2.24943105e-05
 2.24943105e-05
 2.24943105e-05
 2.24943105e-05
 7.99311992e-06
 7.99311992e-06
 7.99311992e-06
 7.99311992e-06
 7.99311992e-06
 7.99311992e-06
 7.99311992e-06
 7.99311992e-06
 7.99311992e-06
 7.99311992e-06
 7.99311992e-06
 7.99311992e-06
 7.99311992e-06
 7.99311992e-06
 7.99311992e-06
 5.72075452e-06
 5.72075452e-06
 5.72075452e-06
 5.72075452e-06
 5.72075452e-06
 5.72075452e-06
 5.72075452e-06
 5.72075452e-06
 5.72075452e-06
 5.72075452e-06
 9.46126628e-06
 9.46126628e-06
 9.46126628e-06
 9.46126628e-06
 7.74408311e-06
 7.74408311e-06
 7.74408311e-06
 7.74408311e-06
 7.74408311e-06
 5.99553346e-06
 5.99553346e-06
 5.30527595e-06
 5.30527595e-06
 4.30462728e-06
 4.30462728e-06
 4.30462728e-06
)
)
1
(
101
(
 9.41906081e-06
 9.41906081e-06
 9.41906081e-06
 9.41906081e-06
 9.41906081e-06
 9.41906081e-06
 9.41906081e-06
 9.41906081e-06
 9.41906081e-06
 1.08167062e-05
 1.08167062e-05
 1.08167062e-05
 1.08167062e-05
 1.08167062e-05
 1.08167062e-05
 1.08167062e-05
 1.08167062e-05
 1.08167062e-05
 1.08167062e-05
 1.08167062e-05
 1.08167062e-05
 1.08167062e-05
 1.08167062e-05
 1.08167062e-05
 1.08167062e-05
 1.08167062e-05
 1.08167062e-05
 1.08167062e-05
 1.08167062e-05
 1.08167062e-05
 1.08167062e-05
 1.08167062e-05
 1.08167062e-05
 1.08167062e-05
 1.08167062e-05
 1.08167062e-05
 1.08167062e-05
 1.08167062e-05
 1.08167062e-05
 1.08167062e-05
 1.08167062e-05
 1.08167062e-05
 3.05802923e-05
 3.05802923e-05
 3.05802923e-05
 3.05802923e-05
 3.05802923e-05
 3.05802923e-05
 3.05802923e-05
 3.05802923e-05
 3.05802923e-05
 3.05802923e-05
 3.05802923e-05
 3.05802923e-05
 2.24943105e-05
 2.24943105e-05
 2.24943105e-05
 2.24943105e-05
 2.24943105e-05
 2.24943105e-05
 2.24943105e-05
 2.24943105e-05
 7.99311992e-06
 7.99311992e-06
 7.99311992e-06
 7.99311992e-06
 7.99311992e-06
 7.99311992e-06
 7.99311992e-06
 7.99311992e-06
 7.99311992e-06
 7.99311992e-06
 7.99311992e-06
 7.99311992e-06
 7.99311992e-06
 7.99311992e-06
 5.72075452e-06
 5.72075452e-06
 5.72075452e-06
 5.72075452e-06
 5.72075452e-06
 5.72075452e-06
 5.72075452e-06
 5.72075452e-06
 5.72075452e-06
 5.72075452e-06
 9.46126628e-06
 9.46126628e-06
 9.46126628e-06
 9.46126628e-06
 9.09595953e-06
 7.74408311e-06
 7.74408311e-06
 7.74408311e-06
 7.74408311e-06
 5.99553346e-06
 5.99553346e-06
 5.30527595e-06
 5.30527595e-06
 4.30462728e-06
 4.30462728e-06
)
)
1
(
101
(
 1.07520366e-05
 1.07520366e-05
 1.07520366e-05
 1.07520366e-05
 1.07520366e-05
 1.07520366e-05
 1.08167062e-05
 1.08167062e-05
 1.08167062e-05
 1.08167062e-05
 1.08167062e-05
 1.08167062e-05
 1.08167062e-05
 1.08167062e-05
 1.08167062e-05
 1.08167062e-05
 1.08167062e-05
 1.08167062e-05
 1.08167062e-05
 1.08167062e-05
 1.08167062e-05
 1.08167062e-05
 1.08167062e-05
 1.08167062e-05
 1.08167062e-05
 1.08167062e-05
 1.08167062e-05
 1.08167062e-05
 1.08167062e-05
 1.08167062e-05
 1.08167062e-05
 1.08167062e-05
 1.08167062e-05
 1.08167062e-05
 1.08167062e-05
 1.08167062e-05
 1.08167062e-05
 1.08167062e-05
 1.08167062e-05
 1.08167062e-05
 1.08167062e-05
 1.08167062e-05
 3.05802923e-05
 3.05802923e-05
 3.05802923e-05
 3.05802923e-05
 3.05802923e-05
 3.05802923e-05
 3.05802923e-05
 3.05802923e-05
 3.05802923e-05
 3.05802923e-05
 3.05802923e-05
 3.05802923e-05
 3.05802923e-05
 2.24943105e-05
 2.24943105e-05
 2.24943105e-05
 2.24943105e-05
 2.24943105e-05
 2.24943105e-05
 2.24943105e-05
 2.24943105e-05
 7.99311992e-06
 7.99311992e-06
 7.99311992e-06
 7.99311992e-06
 7.99311992e-06
 7.99311992e-06
 7.99311992e-06
 7.99311992e-06
 7.99311992e-06
 7.99311992e-06
 7.99311992e-06
 7.99311992e-06
 7.99311992e-06
 7.99311992e-06
 5.72075452e-06
 5.72075452e-06
 5.72075452e-06
 5.72075452e-06
 5.72075452e-06
 5.72075452e-06
 5.72075452e-06
 5.72075452e-06
 5.72075452e-06
 5.72075452e-06
 9.46126628e-06
 9.46126628e-06
 9.46126628e-06
 9.46126628e-06
 9.09595953e-06
 9.09595953e-06
 7.11330364e-06
 7.11330364e-06
 7.11330364e-06
 5.99553346e-06
 5.99553346e-06
 5.30527595e-06
 5.30527595e-06
 4.30462728e-06
)
)
1
(
101
(
 1.13222881e-05
 1.13222881e-05
 1.13222881e-05
 1.08167062e-05
 1.08167062e-05
 1.08167062e-05
 1.08167062e-05
 1.08167062e-05
 1.08167062e-05
 1.08167062e-05
 1.08167062e-05
 1.08167062e-05
 1.08167062e-05
 1.08167062e-05
 1.08167062e-05
 1.08167062e-05
 1.08167062e-05
 1.08167062e-05
 1.08167062e-05
 1.08167062e-05
 1.08167062e-05
 1.08167062e-05
 1.08167062e-05
 1.08167062e-05
 1.08167062e-05
 1.08167062e-05
 1.08167062e-05
 1.08167062e-05
 1.08167062e-05
 1.08167062e-05
 1.08167062e-05
 1.08167062e-05
 1.08167062e-05
 1.08167062e-05
 1.08167062e-05
 1.08167062e-05
 1.08167062e-05
 1.08167062e-05
 1.08167062e-05
 1.08167062e-05
 1.08167062e-05
 3.74730062e-05
 3.05802923e-05
 3.05802923e-05
 3.05802923e-05
 3.05802923e-05
 3.05802923e-05
 3.05802923e-05
 3.05802923e-05
 3.05802923e-05
 3.05802923e-05
 3.05802923e-05
 3.05802923e-05
 3.05802923e-05
 3.05802923e-05
 3.05802923e-05
 2.24943105e-05
 2.24943105e-05
 2.24943105e-05
 2.24943105e-05
 2.24943105e-05
 2.24943105e-05
 2.24943105e-05
 2.24943105e-05
 2.24943105e-05
 7.99311992e-06
 7.99311992e-06
 7.99311992e-06
 7.99311992e-06
 7.99311992e-06
 7.99311992e-06
 7.99311992e-06
 7.99311992e-06
 7.99311992e-06
 7.99311992e-06
 7.99311992e-06
 7.99311992e-06
 7.99311992e-06
 5.72075452e-06
 5.72075452e-06
 5.72075452e-06
 5.72075452e-06
 5.72075452e-06
 5.72075452e-06
 5.72075452e-06
 5.72075452e-06
 5.72075452e-06
 5.72075452e-06
 9.46126628e-06
 9.46126628e-06
 9.46126628e-06
 9.46126628e-06
 9.09595953e-06
 9.09595953e-06
 7.11330364e-06
 7.11330364e-06
 7.11330364e-06
 7.11330364e-06
 5.99553346e-06
 5.30527595e-06
 5.30527595e-06
)
)
1
(
101
(
 1.35145627e-05
 1.35145627e-05
 1.08167062e-05
 1.08167062e-05
 1.08167062e-05
 1.08167062e-05
 1.08167062e-05
 1.08167062e-05
 1.08167062e-05
 1.08167062e-05
 1.08167062e-05
 1.08167062e-05
 1.08167062e-05
 1.08167062e-05
 1.08167062e-05
 1.08167062e-05
 1.08167062e-05
 1.08167062e-05
 1.08167062e-05
 1.08167062e-05
 1.08167062e-05
 1.08167062e-05
 1.08167062e-05
 1.08167062e-05
 1.08167062e-05
 1.08167062e-05
 1.08167062e-05
 1.08167062e-05
 1.08167062e-05
 1.08167062e-05
 1.08167062e-05
 1.08167062e-05
 1.08167062e-05
 1.08167062e-05
 1.08167062e-05
 1.08167062e-05
 1.08167062e-05
 1.08167062e-05
 1.08167062e-05
 1.08167062e-05
 1.08167062e-05
 3.74730062e-05
 3.74730062e-05
 3.05802923e-05
 3.05802923e-05
 3.05802923e-05
 3.05802923e-05
 3.05802923e-05
 3.05802923e-05
 3.05802923e-05
 3.05802923e-05
 3.05802923e-05
 3.05802923e-05
 3.05802923e-05
 3.05802923e-05
 3.05802923e-05
 3.05802923e-05
 2.24943105e-05
 2.24943105e-05
 2.24943105e-05
 2.24943105e-05
 2.24943105e-05
 2.24943105e-05
 2.24943105e-05
 2.24943105e-05
 2.24943105e-05
 7.99311992e-06
 7.99311992e-06
 7.99311992e-06
 7.99311992e-06
 7.99311992e-06
 7.99311992e-06
 7.99311992e-06
 7.99311992e-06
 7.99311992e-06
 7.99311992e-06
 7.99311992e-06
 7.99311992e-06
 7.99311992e-06
 7.99311992e-06
 5.72075452e-06
 5.72075452e-06
 5.72075452e-06
 5.72075452e-06
 5.72075452e-06
 5.72075452e-06
 5.72075452e-06
 5.72075452e-06
 1.12339628e-05
 9.46126628e-06
 9.46126628e-06
 9.46126628e-06
 7.37877546e-06
 7.37877546e-06
 7.37877546e-06
 7.11330364e-06
 7.11330364e-06
 7.11330364e-06
 7.11330364e-06
 7.11330364e-06
 5.30527595e-06
)
)
1
(
101
(
 1.81965076e-05
 1.08167062e-05
 1.08167062e-05
 1.08167062e-05
 1.08167062e-05
 1.08167062e-05
 1.08167062e-05
 1.08167062e-05
 1.08167062e-05
 1.08167062e-05
 1.08167062e-05
 1.08167062e-05
 1.08167062e-05
 1.08167062e-05
 1.08167062e-05
 1.08167062e-05
 1.08167062e-05
 1.08167062e-05
 1.08167062e-05
 1.08167062e-05
 1.08167062e-05
 1.08167062e-05
 1.08167062e-05
 1.08167062e-05
 1.08167062e-05
 1.08167062e-05
 1.08167062e-05
 1.08167062e-05
 1.08167062e-05
 1.08167062e-05
 1.08167062e-05
 1.08167062e-05
 1.08167062e-05
 1.08167062e-05
 1.08167062e-05
 1.08167062e-05
 1.08167062e-05
 1.08167062e-05
 1.08167062e-05
 1.08167062e-05
 3.74730062e-05
 3.74730062e-05
 3.74730062e-05
 3.74730062e-05
 3.05802923e-05
 3.05802923e-05
 3.05802923e-05
 3.05802923e-05
 3.05802923e-05
 3.05802923e-05
 3.05802923e-05
 3.05802923e-05
 3.05802923e-05
 3.05802923e-05
 3.05802923e-05
 3.05802923e-05
 3.05802923e-05
 3.05802923e-05
 2.24943105e-05
 2.24943105e-05
 2.24943105e-05
 2.24943105e-05
 2.24943105e-05
 2.24943105e-05
 2.24943105e-05
 2.24943105e-05
 2.24943105e-05
 2.24943105e-05
 7.99311992e-06
 7.99311992e-06
 7.99311992e-06
 7.99311992e-06
 7.99311992e-06
 7.99311992e-06
 7.99311992e-06
 7.99311992e-06
 7.99311992e-06
 7.99311992e-06
 7.99311992e-06
 7.99311992e-06
 7.99311992e-06
 1.37091566e-05
 5.72075452e-06
 5.72075452e-06
 5.72075452e-06
 5.72075452e-06
 5.72075452e-06
 5.72075452e-06
 5.72075452e-06
 1.12339628e-05
 1.12339628e-05
 1.06074449e-05
 1.06074449e-05
 7.37877546e-06
 7.37877546e-06
 7.37877546e-06
 7.37877546e-06
 7.11330364e-06
 7.11330364e-06
 7.11330364e-06
 7.11330364e-06
)
)
1
(
101
(
 1.81965076e-05
 1.57100461e-05
 1.57100461e-05
 1.57100461e-05
 1.57100461e-05
 1.57100461e-05
 1.57100461e-05
 1.57100461e-05
 1.57100461e-05
 1.57100461e-05
 1.57100461e-05
 1.57100461e-05
 1.57100461e-05
 1.57100461e-05
 1.57100461e-05
 1.57100461e-05
 1.57100461e-05
 1.57100461e-05
 1.57100461e-05
 1.57100461e-05
 1.57100461e-05
 1.57100461e-05
 1.57100461e-05
 1.57100461e-05
 1.57100461e-05
 1.57100461e-05
 1.57100461e-05
 1.57100461e-05
 1.57100461e-05
 1.57100461e-05
 1.57100461e-05
 1.57100461e-05
 1.57100461e-05
 1.57100461e-05
 1.57100461e-05
 1.57100461e-05
 1.57100461e-05
 1.57100461e-05
 1.57100461e-05
 1.57100461e-05
 3.74730062e-05
 3.74730062e-05
 3.74730062e-05
 3.74730062e-05
 3.74730062e-05
 3.05802923e-05
 3.05802923e-05
 3.05802923e-05
 3.05802923e-05
 3.05802923e-05
 3.05802923e-05
 3.05802923e-05
 3.05802923e-05
 3.05802923e-05
 3.05802923e-05
 3.05802923e-05
 3.05802923e-05
 3.05802923e-05
 3.05802923e-05
 2.24943105e-05
 2.24943105e-05
 2.24943105e-05
 2.24943105e-05
 2.24943105e-05
 2.24943105e-05
 2.24943105e-05
 2.24943105e-05
 2.24943105e-05
 2.24943105e-05
 7.99311992e-06
 7.99311992e-06
 7.99311992e-06
 7.99311992e-06
 7.99311992e-06
 7.99311992e-06
 7.99311992e-06
 7.99311992e-06
 7.99311992e-06
 7.99311992e-06
 7.99311992e-06
 7.99311992e-06
 7.99311992e-06
 1.37091566e-05
 1.37091566e-05
 5.72075452e-06
 5.72075452e-06
 5.72075452e-06
 5.72075452e-06
 5.72075452e-06
 1.12339628e-05
 1.12339628e-05
 1.12339628e-05
 1.06074449e-05
 1.06074449e-05
 7.37877546e-06
 7.37877546e-06
 7.37877546e-06
 7.37877546e-06
 7.37877546e-06
 7.11330364e-06
 7.11330364e-06
)
)
1
(
101
(
 1.70018194e-05
 1.70018194e-05
 1.70018194e-05
 1.70018194e-05
 1.70018194e-05
 1.70018194e-05
 1.70018194e-05
 1.70018194e-05
 1.70018194e-05
 1.70018194e-05
 1.70018194e-05
 1.70018194e-05
 1.70018194e-05
 1.70018194e-05
 1.70018194e-05
 1.70018194e-05
 1.70018194e-05
 1.70018194e-05
 1.70018194e-05
 1.70018194e-05
 1.70018194e-05
 1.70018194e-05
 1.70018194e-05
 1.70018194e-05
 1.70018194e-05
 1.70018194e-05
 1.70018194e-05
 1.70018194e-05
 1.70018194e-05
 1.70018194e-05
 1.70018194e-05
 1.70018194e-05
 1.70018194e-05
 1.70018194e-05
 1.70018194e-05
 1.70018194e-05
 1.70018194e-05
 1.70018194e-05
 1.70018194e-05
 1.70018194e-05
 3.74730062e-05
 3.74730062e-05
 3.74730062e-05
 3.74730062e-05
 3.74730062e-05
 3.74730062e-05
 3.05802923e-05
 3.05802923e-05
 3.05802923e-05
 3.05802923e-05
 3.05802923e-05
 3.05802923e-05
 3.05802923e-05
 3.05802923e-05
 3.05802923e-05
 3.05802923e-05
 3.05802923e-05
 3.05802923e-05
 3.05802923e-05
 3.05802923e-05
 3.05802923e-05
 2.24943105e-05
 2.24943105e-05
 2.24943105e-05
 2.24943105e-05
 2.24943105e-05
 2.24943105e-05
 2.24943105e-05
 2.24943105e-05
 2.24943105e-05
 2.24943105e-05
 7.99311992e-06
 7.99311992e-06
 7.99311992e-06
 7.99311992e-06
 7.99311992e-06
 7.99311992e-06
 7.99311992e-06
 7.99311992e-06
 7.99311992e-06
 7.99311992e-06
 7.99311992e-06
 7.99311992e-06
 1.37091566e-05
 1.37091566e-05
 1.37091566e-05
 5.72075452e-06
 5.72075452e-06
 5.72075452e-06
 5.72075452e-06
 1.12339628e-05
 1.12339628e-05
 1.12339628e-05
 1.06074449e-05
 1.06074449e-05
 7.37877546e-06
 7.37877546e-06
 7.37877546e-06
 7.37877546e-06
 7.37877546e-06
 7.37877546e-06
)
)
1
(
101
(
 1.79084441e-05
 1.79084441e-05
 1.79084441e-05
 1.79084441e-05
 1.79084441e-05
 1.79084441e-05
 1.79084441e-05
 1.79084441e-05
 1.79084441e-05
 1.79084441e-05
 1.79084441e-05
 1.79084441e-05
 1.79084441e-05
 1.79084441e-05
 1.79084441e-05
 1.79084441e-05
 1.79084441e-05
 1.79084441e-05
 1.79084441e-05
 1.79084441e-05
 1.79084441e-05
 1.79084441e-05
 1.79084441e-05
 1.79084441e-05
 1.79084441e-05
 1.79084441e-05
 1.79084441e-05
 1.79084441e-05
 1.79084441e-05
 1.79084441e-05
 1.79084441e-05
 1.79084441e-05
 1.79084441e-05
 1.79084441e-05
 1.79084441e-05
 1.79084441e-05
 1.79084441e-05
 1.79084441e-05
 1.79084441e-05
 3.74730062e-05
 3.74730062e-05
 3.74730062e-05
 3.74730062e-05
 3.74730062e-05
 3.74730062e-05
 3.74730062e-05
 3.74730062e-05
 3.74730062e-05
 3.05802923e-05
 3.05802923e-05
 3.05802923e-05
 3.05802923e-05
 3.05802923e-05
 3.05802923e-05
 3.05802923e-05
 3.05802923e-05
 3.05802923e-05
 3.05802923e-05
 3.05802923e-05
 3.05802923e-05
 3.05802923e-05
 3.05802923e-05
 2.24943105e-05
 2.24943105e-05
 2.24943105e-05
 2.24943105e-05
 2.24943105e-05
 2.24943105e-05
 2.24943105e-05
 2.24943105e-05
 2.24943105e-05
 2.24943105e-05
 7.99311992e-06
 7.99311992e-06
 7.99311992e-06
 7.99311992e-06
 7.99311992e-06
 7.99311992e-06
 7.99311992e-06
 7.99311992e-06
 7.99311992e-06
 7.99311992e-06
 7.99311992e-06
 7.99311992e-06
 1.37091566e-05
 1.37091566e-05
 1.37091566e-05
 1.37091566e-05
 1.28313600e-05
 1.28313600e-05
 1.28313600e-05
 1.12339628e-05
 1.12339628e-05
 1.12339628e-05
 1.06074449e-05
 1.06074449e-05
 7.37877546e-06
 7.37877546e-06
 7.37877546e-06