/*--------------------------------*- C++ -*----------------------------------*\
| =========                 |                                                 |
| \\      /  F ield        | OpenFOAM: The Open Source CFD Toolbox           |
|  \\    /   O peration    | Version:  7                                     |
|   \\  /    A nd          | Web:      http://www.OpenFOAM.com               |
|    \\/     M anipulation |                                                 |
\*---------------------------------------------------------------------------*/

FoamFile
{
    version     2.0;
    format      ascii;
    class       dictionary;
    object      Y_NO2_table;
}

Y_NO2_table
2
(
101
(
1
(
101
(
 4.77058644e-09
 4.77058644e-09
 4.77058644e-09
 4.77058644e-09
 4.77058644e-09
 4.77058644e-09
 4.77058644e-09
 4.77058644e-09
 4.77058644e-09
 4.77058644e-09
 4.77058644e-09
 4.77058644e-09
 4.77058644e-09
 4.77058644e-09
 4.77058644e-09
 4.77058644e-09
 4.77058644e-09
 4.77058644e-09
 4.77058644e-09
 4.77058644e-09
 4.77058644e-09
 4.77058644e-09
 4.77058644e-09
 4.77058644e-09
 4.77058644e-09
 4.77058644e-09
 4.77058644e-09
 4.77058644e-09
 4.77058644e-09
 4.77058644e-09
 4.77058644e-09
 4.77058644e-09
 4.77058644e-09
 4.77058644e-09
 4.77058644e-09
 4.77058644e-09
 4.77058644e-09
 4.77058644e-09
 4.77058644e-09
 4.77058644e-09
 4.77058644e-09
 4.77058644e-09
 4.77058644e-09
 4.77058644e-09
 4.77058644e-09
 1.37102934e-07
 1.37102934e-07
 1.40564589e-07
 1.40564589e-07
 1.40564589e-07
 1.40564589e-07
 1.40564589e-07
 1.40564589e-07
 1.40564589e-07
 1.40564589e-07
 1.40564589e-07
 1.40564589e-07
 1.40564589e-07
 1.40564589e-07
 1.40564589e-07
 1.40564589e-07
 1.40564589e-07
 1.40564589e-07
 1.02620531e-07
 1.02620531e-07
 1.02620531e-07
 1.02620531e-07
 1.02620531e-07
 1.02620531e-07
 1.02620531e-07
 1.02620531e-07
 1.02620531e-07
 1.02620531e-07
 1.02620531e-07
 1.02620531e-07
 4.71087412e-08
 4.71087412e-08
 4.71087412e-08
 4.71087412e-08
 4.71087412e-08
 4.71087412e-08
 4.71087412e-08
 3.44208516e-08
 3.44208516e-08
 3.44208516e-08
 3.44208516e-08
 3.44208516e-08
 3.44208516e-08
 1.96968555e-08
 1.96968555e-08
 1.96968555e-08
 1.96968555e-08
 1.96968555e-08
 1.96968555e-08
 1.96968555e-08
 2.98150031e-09
 2.98150031e-09
 2.98150031e-09
 2.98150031e-09
 2.98150031e-09
 3.05528194e-11
)
)
1
(
101
(
 2.70740194e-07
 2.70740194e-07
 2.70740194e-07
 2.70740194e-07
 2.70740194e-07
 2.70740194e-07
 2.70740194e-07
 2.70740194e-07
 2.70740194e-07
 2.70740194e-07
 2.70740194e-07
 2.70740194e-07
 2.70740194e-07
 2.70740194e-07
 2.70740194e-07
 2.70740194e-07
 2.70740194e-07
 2.70740194e-07
 2.70740194e-07
 2.70740194e-07
 2.70740194e-07
 2.70740194e-07
 2.70740194e-07
 2.70740194e-07
 2.70740194e-07
 2.70740194e-07
 2.70740194e-07
 2.70740194e-07
 2.70740194e-07
 2.70740194e-07
 2.70740194e-07
 2.70740194e-07
 2.70740194e-07
 2.70740194e-07
 2.70740194e-07
 2.70740194e-07
 2.70740194e-07
 2.70740194e-07
 2.70740194e-07
 2.70740194e-07
 2.70740194e-07
 2.70740194e-07
 2.70740194e-07
 2.70740194e-07
 2.70740194e-07
 1.37102934e-07
 1.37102934e-07
 1.37102934e-07
 1.40564589e-07
 1.40564589e-07
 1.40564589e-07
 1.40564589e-07
 1.40564589e-07
 1.40564589e-07
 1.40564589e-07
 1.40564589e-07
 1.40564589e-07
 1.40564589e-07
 1.40564589e-07
 1.40564589e-07
 1.40564589e-07
 1.40564589e-07
 1.40564589e-07
 1.40564589e-07
 1.40564589e-07
 1.02620531e-07
 1.02620531e-07
 1.02620531e-07
 1.02620531e-07
 1.02620531e-07
 1.02620531e-07
 1.02620531e-07
 1.02620531e-07
 1.02620531e-07
 1.02620531e-07
 1.02620531e-07
 1.02620531e-07
 4.71087412e-08
 4.71087412e-08
 4.71087412e-08
 4.71087412e-08
 4.71087412e-08
 4.71087412e-08
 3.44208516e-08
 3.44208516e-08
 3.44208516e-08
 3.44208516e-08
 3.44208516e-08
 3.44208516e-08
 3.44208516e-08
 1.96968555e-08
 1.96968555e-08
 1.96968555e-08
 1.96968555e-08
 1.96968555e-08
 1.96968555e-08
 9.10211650e-09
 2.98150031e-09
 2.98150031e-09
 2.98150031e-09
 1.18033392e-09
)
)
1
(
101
(
 6.82367207e-07
 6.82367207e-07
 6.82367207e-07
 6.82367207e-07
 6.82367207e-07
 6.82367207e-07
 6.82367207e-07
 6.82367207e-07
 6.82367207e-07
 6.82367207e-07
 6.82367207e-07
 6.82367207e-07
 6.82367207e-07
 6.82367207e-07
 6.82367207e-07
 6.82367207e-07
 6.82367207e-07
 6.82367207e-07
 6.82367207e-07
 6.82367207e-07
 6.82367207e-07
 6.82367207e-07
 6.82367207e-07
 6.82367207e-07
 6.82367207e-07
 6.82367207e-07
 6.82367207e-07
 6.82367207e-07
 6.82367207e-07
 6.82367207e-07
 6.82367207e-07
 6.82367207e-07
 6.82367207e-07
 6.82367207e-07
 6.82367207e-07
 6.82367207e-07
 6.82367207e-07
 6.82367207e-07
 6.82367207e-07
 6.82367207e-07
 6.82367207e-07
 6.82367207e-07
 6.82367207e-07
 6.82367207e-07
 1.37102934e-07
 1.37102934e-07
 1.37102934e-07
 1.37102934e-07
 1.37102934e-07
 1.37102934e-07
 1.40564589e-07
 1.40564589e-07
 1.40564589e-07
 1.40564589e-07
 1.40564589e-07
 1.40564589e-07
 1.40564589e-07
 1.40564589e-07
 1.40564589e-07
 1.40564589e-07
 1.40564589e-07
 1.40564589e-07
 1.40564589e-07
 1.40564589e-07
 1.40564589e-07
 1.40564589e-07
 1.02620531e-07
 1.02620531e-07
 1.02620531e-07
 1.02620531e-07
 1.02620531e-07
 1.02620531e-07
 1.02620531e-07
 1.02620531e-07
 1.02620531e-07
 1.02620531e-07
 1.02620531e-07
 1.02620531e-07
 4.71087412e-08
 4.71087412e-08
 4.71087412e-08
 4.71087412e-08
 4.71087412e-08
 4.71087412e-08
 4.71087412e-08
 3.44208516e-08
 3.44208516e-08
 3.44208516e-08
 3.44208516e-08
 3.44208516e-08
 3.44208516e-08
 1.96968555e-08
 1.96968555e-08
 1.96968555e-08
 1.96968555e-08
 1.96968555e-08
 1.96968555e-08
 9.10211650e-09
 9.10211650e-09
 4.31826303e-09
 4.31826303e-09
)
)
1
(
101
(
 1.16067210e-06
 1.16067210e-06
 1.16067210e-06
 1.16067210e-06
 1.16067210e-06
 1.16067210e-06
 1.16067210e-06
 1.16067210e-06
 1.16067210e-06
 1.16067210e-06
 1.16067210e-06
 1.16067210e-06
 1.16067210e-06
 1.16067210e-06
 1.16067210e-06
 1.16067210e-06
 1.16067210e-06
 1.16067210e-06
 1.16067210e-06
 1.16067210e-06
 1.16067210e-06
 1.16067210e-06
 1.16067210e-06
 1.16067210e-06
 1.16067210e-06
 1.16067210e-06
 1.16067210e-06
 1.16067210e-06
 1.16067210e-06
 1.16067210e-06
 1.16067210e-06
 1.16067210e-06
 1.16067210e-06
 1.16067210e-06
 1.16067210e-06
 1.16067210e-06
 1.16067210e-06
 1.16067210e-06
 1.16067210e-06
 1.16067210e-06
 1.16067210e-06
 1.16067210e-06
 1.16067210e-06
 1.16067210e-06
 1.33639978e-07
 1.37102934e-07
 1.37102934e-07
 1.37102934e-07
 1.37102934e-07
 1.37102934e-07
 1.37102934e-07
 1.40564589e-07
 1.40564589e-07
 1.40564589e-07
 1.40564589e-07
 1.40564589e-07
 1.40564589e-07
 1.40564589e-07
 1.40564589e-07
 1.40564589e-07
 1.40564589e-07
 1.40564589e-07
 1.40564589e-07
 1.40564589e-07
 1.40564589e-07
 1.40564589e-07
 1.40564589e-07
 1.02620531e-07
 1.02620531e-07
 1.02620531e-07
 1.02620531e-07
 1.02620531e-07
 1.02620531e-07
 1.02620531e-07
 1.02620531e-07
 1.02620531e-07
 1.02620531e-07
 1.02620531e-07
 1.02620531e-07
 5.64415732e-08
 4.71087412e-08
 4.71087412e-08
 4.71087412e-08
 4.71087412e-08
 4.71087412e-08
 4.71087412e-08
 3.44208516e-08
 3.44208516e-08
 3.44208516e-08
 3.44208516e-08
 3.44208516e-08
 3.44208516e-08
 3.44208516e-08
 1.96968555e-08
 1.96968555e-08
 1.96968555e-08
 1.96968555e-08
 1.96968555e-08
 9.10211650e-09
 1.53978597e-09
 1.53978597e-09
)
)
1
(
101
(
 1.64169856e-06
 1.64169856e-06
 1.64169856e-06
 1.64169856e-06
 1.64169856e-06
 1.64169856e-06
 1.64169856e-06
 1.64169856e-06
 1.64169856e-06
 1.64169856e-06
 1.64169856e-06
 1.64169856e-06
 1.64169856e-06
 1.64169856e-06
 1.64169856e-06
 1.64169856e-06
 1.64169856e-06
 1.64169856e-06
 1.64169856e-06
 1.64169856e-06
 1.64169856e-06
 1.64169856e-06
 1.64169856e-06
 1.64169856e-06
 1.64169856e-06
 1.64169856e-06
 1.64169856e-06
 1.64169856e-06
 1.64169856e-06
 1.64169856e-06
 1.64169856e-06
 1.64169856e-06
 1.64169856e-06
 1.64169856e-06
 1.64169856e-06
 1.64169856e-06
 1.64169856e-06
 1.64169856e-06
 1.64169856e-06
 1.64169856e-06
 1.64169856e-06
 1.64169856e-06
 1.64169856e-06
 1.64169856e-06
 1.33639978e-07
 1.33639978e-07
 1.33639978e-07
 1.37102934e-07
 1.37102934e-07
 1.37102934e-07
 1.37102934e-07
 1.37102934e-07
 1.37102934e-07
 1.40564589e-07
 1.40564589e-07
 1.40564589e-07
 1.40564589e-07
 1.40564589e-07
 1.40564589e-07
 1.40564589e-07
 1.40564589e-07
 1.40564589e-07
 1.40564589e-07
 1.40564589e-07
 1.40564589e-07
 1.40564589e-07
 1.40564589e-07
 1.40564589e-07
 1.02620531e-07
 1.02620531e-07
 1.02620531e-07
 1.02620531e-07
 1.02620531e-07
 1.02620531e-07
 1.02620531e-07
 1.02620531e-07
 1.02620531e-07
 1.02620531e-07
 1.02620531e-07
 1.02620531e-07
 5.64415732e-08
 4.71087412e-08
 4.71087412e-08
 4.71087412e-08
 4.71087412e-08
 4.71087412e-08
 4.71087412e-08
 4.71087412e-08
 3.44208516e-08
 3.44208516e-08
 3.44208516e-08
 3.44208516e-08
 3.44208516e-08
 3.44208516e-08
 1.39227240e-08
 1.96968555e-08
 1.96968555e-08
 1.96968555e-08
 6.96969613e-09
 6.96969613e-09
 1.53978597e-09
)
)
1
(
101
(
 2.14182893e-06
 2.14182893e-06
 2.14182893e-06
 2.14182893e-06
 2.14182893e-06
 2.14182893e-06
 2.14182893e-06
 2.14182893e-06
 2.14182893e-06
 2.14182893e-06
 2.14182893e-06
 2.14182893e-06
 2.14182893e-06
 2.14182893e-06
 2.14182893e-06
 2.14182893e-06
 2.14182893e-06
 2.14182893e-06
 2.14182893e-06
 2.14182893e-06
 2.14182893e-06
 2.14182893e-06
 2.14182893e-06
 2.14182893e-06
 2.14182893e-06
 2.14182893e-06
 2.14182893e-06
 2.14182893e-06
 2.14182893e-06
 2.14182893e-06
 2.14182893e-06
 2.14182893e-06
 2.14182893e-06
 2.14182893e-06
 2.14182893e-06
 2.14182893e-06
 2.14182893e-06
 2.14182893e-06
 2.14182893e-06
 2.14182893e-06
 2.14182893e-06
 2.14182893e-06
 5.56551872e-06
 1.33639978e-07
 1.33639978e-07
 1.33639978e-07
 1.33639978e-07
 1.33639978e-07
 1.37102934e-07
 1.37102934e-07
 1.37102934e-07
 1.37102934e-07
 1.37102934e-07
 1.37102934e-07
 1.40564589e-07
 1.40564589e-07
 1.40564589e-07
 1.40564589e-07
 1.40564589e-07
 1.40564589e-07
 1.40564589e-07
 1.40564589e-07
 1.40564589e-07
 1.40564589e-07
 1.40564589e-07
 1.40564589e-07
 1.40564589e-07
 1.40564589e-07
 1.40564589e-07
 1.40564589e-07
 1.02620531e-07
 1.02620531e-07
 1.02620531e-07
 1.02620531e-07
 1.02620531e-07
 1.02620531e-07
 1.02620531e-07
 1.02620531e-07
 1.02620531e-07
 1.02620531e-07
 1.02620531e-07
 5.64415732e-08
 5.64415732e-08
 4.71087412e-08
 4.71087412e-08
 4.71087412e-08
 4.71087412e-08
 4.71087412e-08
 4.71087412e-08
 3.44208516e-08
 3.44208516e-08
 3.44208516e-08
 3.44208516e-08
 3.44208516e-08
 3.44208516e-08
 1.39227240e-08
 1.39227240e-08
 1.26347713e-08
 1.26347713e-08
 6.96969613e-09
 6.96969613e-09
)
)
1
(
101
(
 2.64140164e-06
 2.64140164e-06
 2.64140164e-06
 2.64140164e-06
 2.64140164e-06
 2.64140164e-06
 2.64140164e-06
 2.64140164e-06
 2.64140164e-06
 2.64140164e-06
 2.64140164e-06
 2.64140164e-06
 2.64140164e-06
 2.64140164e-06
 2.64140164e-06
 2.64140164e-06
 2.64140164e-06
 2.64140164e-06
 2.64140164e-06
 2.64140164e-06
 2.64140164e-06
 2.64140164e-06
 2.64140164e-06
 2.64140164e-06
 2.64140164e-06
 2.64140164e-06
 2.64140164e-06
 2.64140164e-06
 2.64140164e-06
 2.64140164e-06
 2.64140164e-06
 2.64140164e-06
 2.64140164e-06
 5.56551872e-06
 5.56551872e-06
 5.56551872e-06
 5.56551872e-06
 5.56551872e-06
 5.56551872e-06
 5.56551872e-06
 5.56551872e-06
 5.56551872e-06
 5.56551872e-06
 1.33639978e-07
 1.33639978e-07
 1.33639978e-07
 1.33639978e-07
 1.33639978e-07
 1.33639978e-07
 1.37102934e-07
 1.37102934e-07
 1.37102934e-07
 1.37102934e-07
 1.37102934e-07
 1.37102934e-07
 1.37102934e-07
 1.40564589e-07
 1.40564589e-07
 1.40564589e-07
 1.40564589e-07
 1.40564589e-07
 1.40564589e-07
 1.40564589e-07
 1.40564589e-07
 1.40564589e-07
 1.40564589e-07
 1.40564589e-07
 1.40564589e-07
 1.40564589e-07
 1.40564589e-07
 1.40564589e-07
 1.02620531e-07
 1.02620531e-07
 1.02620531e-07
 1.02620531e-07
 1.02620531e-07
 1.02620531e-07
 1.02620531e-07
 1.02620531e-07
 1.02620531e-07
 1.02620531e-07
 1.02620531e-07
 5.64415732e-08
 5.64415732e-08
 4.71087412e-08
 4.71087412e-08
 4.71087412e-08
 4.71087412e-08
 4.71087412e-08
 4.71087412e-08
 4.71087412e-08
 3.44208516e-08
 3.44208516e-08
 3.44208516e-08
 3.44208516e-08
 3.44208516e-08
 1.39227240e-08
 1.39227240e-08
 1.26347713e-08
 1.26347713e-08
 6.96969613e-09
)
)
1
(
101
(
 3.12284076e-06
 3.12284076e-06
 3.12284076e-06
 3.12284076e-06
 3.12284076e-06
 3.12284076e-06
 3.12284076e-06
 3.12284076e-06
 3.12284076e-06
 3.12284076e-06
 3.12284076e-06
 3.12284076e-06
 3.12284076e-06
 3.12284076e-06
 3.12284076e-06
 3.12284076e-06
 3.12284076e-06
 3.12284076e-06
 3.12284076e-06
 3.12284076e-06
 3.12284076e-06
 3.12284076e-06
 3.12284076e-06
 3.12284076e-06
 3.12284076e-06
 3.12284076e-06
 5.56551872e-06
 5.56551872e-06
 5.56551872e-06
 5.56551872e-06
 5.56551872e-06
 5.56551872e-06
 5.56551872e-06
 5.56551872e-06
 5.56551872e-06
 5.56551872e-06
 5.56551872e-06
 5.56551872e-06
 5.56551872e-06
 5.56551872e-06
 5.56551872e-06
 5.56551872e-06
 5.56551872e-06
 1.33639978e-07
 1.33639978e-07
 1.33639978e-07
 1.33639978e-07
 1.33639978e-07
 1.33639978e-07
 1.33639978e-07
 1.37102934e-07
 1.37102934e-07
 1.37102934e-07
 1.37102934e-07
 1.37102934e-07
 1.37102934e-07
 1.37102934e-07
 1.40564589e-07
 1.40564589e-07
 1.40564589e-07
 1.40564589e-07
 1.40564589e-07
 1.40564589e-07
 1.40564589e-07
 1.40564589e-07
 1.40564589e-07
 1.40564589e-07
 1.40564589e-07
 1.40564589e-07
 1.40564589e-07
 1.40564589e-07
 1.40564589e-07
 1.02620531e-07
 1.02620531e-07
 1.02620531e-07
 1.02620531e-07
 1.02620531e-07
 1.02620531e-07
 1.02620531e-07
 1.02620531e-07
 1.02620531e-07
 1.02620531e-07
 1.02620531e-07
 5.64415732e-08
 5.64415732e-08
 5.64415732e-08
 4.71087412e-08
 4.71087412e-08
 4.71087412e-08
 4.71087412e-08
 4.71087412e-08
 4.71087412e-08
 3.18768761e-08
 3.44208516e-08
 3.44208516e-08
 3.44208516e-08
 1.66845468e-08
 1.66845468e-08
 1.66845468e-08
 1.26347713e-08
 1.26347713e-08
)
)
1
(
101
(
 3.71436230e-06
 3.71436230e-06
 3.71436230e-06
 3.71436230e-06
 3.71436230e-06
 3.71436230e-06
 3.71436230e-06
 3.71436230e-06
 3.71436230e-06
 3.71436230e-06
 3.71436230e-06
 3.71436230e-06
 3.71436230e-06
 3.71436230e-06
 3.71436230e-06
 3.71436230e-06
 3.71436230e-06
 3.71436230e-06
 3.71436230e-06
 5.56551872e-06
 5.56551872e-06
 5.56551872e-06
 5.56551872e-06
 5.56551872e-06
 5.56551872e-06
 5.56551872e-06
 5.56551872e-06
 5.56551872e-06
 5.56551872e-06
 5.56551872e-06
 5.56551872e-06
 5.56551872e-06
 5.56551872e-06
 5.56551872e-06
 5.56551872e-06
 5.56551872e-06
 5.56551872e-06
 5.56551872e-06
 5.56551872e-06
 5.56551872e-06
 5.56551872e-06
 5.56551872e-06
 1.33639978e-07
 1.33639978e-07
 1.33639978e-07
 1.33639978e-07
 1.33639978e-07
 1.33639978e-07
 1.33639978e-07
 1.33639978e-07
 1.33639978e-07
 1.37102934e-07
 1.37102934e-07
 1.37102934e-07
 1.37102934e-07
 1.37102934e-07
 1.37102934e-07
 1.37102934e-07
 1.37102934e-07
 1.40564589e-07
 1.40564589e-07
 1.40564589e-07
 1.40564589e-07
 1.40564589e-07
 1.40564589e-07
 1.40564589e-07
 1.40564589e-07
 1.40564589e-07
 1.40564589e-07
 1.40564589e-07
 1.40564589e-07
 1.40564589e-07
 1.40564589e-07
 1.02620531e-07
 1.02620531e-07
 1.02620531e-07
 1.02620531e-07
 1.02620531e-07
 1.02620531e-07
 1.02620531e-07
 1.02620531e-07
 1.02620531e-07
 1.02620531e-07
 1.02620531e-07
 5.64415732e-08
 5.64415732e-08
 5.64415732e-08
 4.71087412e-08
 4.71087412e-08
 4.71087412e-08
 4.71087412e-08
 4.71087412e-08
 4.71087412e-08
 3.18768761e-08
 3.18768761e-08
 1.55960880e-08
 1.55960880e-08
 1.66845468e-08
 1.66845468e-08
 1.66845468e-08
 1.66845468e-08
)
)
1
(
101
(
 4.22098593e-06
 4.22098593e-06
 4.22098593e-06
 4.22098593e-06
 4.22098593e-06
 4.22098593e-06
 4.22098593e-06
 4.22098593e-06
 4.22098593e-06
 4.22098593e-06
 4.22098593e-06
 4.22098593e-06
 4.22098593e-06
 4.22098593e-06
 5.56551872e-06
 5.56551872e-06
 5.56551872e-06
 5.56551872e-06
 5.56551872e-06
 5.56551872e-06
 5.56551872e-06
 5.56551872e-06
 5.56551872e-06
 5.56551872e-06
 5.56551872e-06
 5.56551872e-06
 5.56551872e-06
 5.56551872e-06
 5.56551872e-06
 5.56551872e-06
 5.56551872e-06
 5.56551872e-06
 5.56551872e-06
 5.56551872e-06
 5.56551872e-06
 5.56551872e-06
 5.56551872e-06
 5.56551872e-06
 5.56551872e-06
 5.56551872e-06
 5.56551872e-06
 5.56551872e-06
 1.33639978e-07
 1.33639978e-07
 1.33639978e-07
 1.33639978e-07
 1.33639978e-07
 1.33639978e-07
 1.33639978e-07
 1.33639978e-07
 1.33639978e-07
 1.33639978e-07
 1.37102934e-07
 1.37102934e-07
 1.37102934e-07
 1.37102934e-07
 1.37102934e-07
 1.37102934e-07
 1.37102934e-07
 1.37102934e-07
 1.40564589e-07
 1.40564589e-07
 1.40564589e-07
 1.40564589e-07
 1.40564589e-07
 1.40564589e-07
 1.40564589e-07
 1.40564589e-07
 1.40564589e-07
 1.40564589e-07
 1.40564589e-07
 1.40564589e-07
 1.40564589e-07
 1.40564589e-07
 1.40564589e-07
 1.02620531e-07
 1.02620531e-07
 1.02620531e-07
 1.02620531e-07
 1.02620531e-07
 1.02620531e-07
 1.02620531e-07
 1.02620531e-07
 1.02620531e-07
 1.02620531e-07
 5.64415732e-08
 5.64415732e-08
 5.64415732e-08
 5.64415732e-08
 4.71087412e-08
 4.71087412e-08
 4.71087412e-08
 4.71087412e-08
 4.71087412e-08
 3.18768761e-08
 3.18768761e-08
 1.55960880e-08
 1.55960880e-08
 1.66845468e-08
 1.66845468e-08
 1.66845468e-08
)
)
1
(
101
(
 4.68189350e-06
 4.68189350e-06
 4.68189350e-06
 4.68189350e-06
 4.68189350e-06
 4.68189350e-06
 4.68189350e-06
 4.68189350e-06
 4.68189350e-06
 5.56551872e-06
 5.56551872e-06
 5.56551872e-06
 5.56551872e-06
 5.56551872e-06
 5.56551872e-06
 5.56551872e-06
 5.56551872e-06
 5.56551872e-06
 5.56551872e-06
 5.56551872e-06
 5.56551872e-06
 5.56551872e-06
 5.56551872e-06
 5.56551872e-06
 5.56551872e-06
 5.56551872e-06
 5.56551872e-06
 5.56551872e-06
 5.56551872e-06
 5.56551872e-06
 5.56551872e-06
 5.56551872e-06
 5.56551872e-06
 5.56551872e-06
 5.56551872e-06
 5.56551872e-06
 5.56551872e-06
 5.56551872e-06
 5.56551872e-06
 5.56551872e-06
 5.56551872e-06
 5.56551872e-06
 1.33639978e-07
 1.33639978e-07
 1.33639978e-07
 1.33639978e-07
 1.33639978e-07
 1.33639978e-07
 1.33639978e-07
 1.33639978e-07
 1.33639978e-07
 1.33639978e-07
 1.33639978e-07
 1.33639978e-07
 1.37102934e-07
 1.37102934e-07
 1.37102934e-07
 1.37102934e-07
 1.37102934e-07
 1.37102934e-07
 1.37102934e-07
 1.37102934e-07
 1.40564589e-07
 1.40564589e-07
 1.40564589e-07
 1.40564589e-07
 1.40564589e-07
 1.40564589e-07
 1.40564589e-07
 1.40564589e-07
 1.40564589e-07
 1.40564589e-07
 1.40564589e-07
 1.40564589e-07
 1.40564589e-07
 1.40564589e-07
 1.02620531e-07
 1.02620531e-07
 1.02620531e-07
 1.02620531e-07
 1.02620531e-07
 1.02620531e-07
 1.02620531e-07
 1.02620531e-07
 1.02620531e-07
 1.02620531e-07
 5.64415732e-08
 5.64415732e-08
 5.64415732e-08
 5.64415732e-08
 4.06333140e-08
 4.71087412e-08
 4.71087412e-08
 4.71087412e-08
 4.71087412e-08
 3.18768761e-08
 3.18768761e-08
 1.55960880e-08
 1.55960880e-08
 1.66845468e-08
 1.66845468e-08
)
)
1
(
101
(
 5.25122370e-06
 5.25122370e-06
 5.25122370e-06
 5.25122370e-06
 5.25122370e-06
 5.25122370e-06
 5.56551872e-06
 5.56551872e-06
 5.56551872e-06
 5.56551872e-06
 5.56551872e-06
 5.56551872e-06
 5.56551872e-06
 5.56551872e-06
 5.56551872e-06
 5.56551872e-06
 5.56551872e-06
 5.56551872e-06
 5.56551872e-06
 5.56551872e-06
 5.56551872e-06
 5.56551872e-06
 5.56551872e-06
 5.56551872e-06
 5.56551872e-06
 5.56551872e-06
 5.56551872e-06
 5.56551872e-06
 5.56551872e-06
 5.56551872e-06
 5.56551872e-06
 5.56551872e-06
 5.56551872e-06
 5.56551872e-06
 5.56551872e-06
 5.56551872e-06
 5.56551872e-06
 5.56551872e-06
 5.56551872e-06
 5.56551872e-06
 5.56551872e-06
 5.56551872e-06
 1.33639978e-07
 1.33639978e-07
 1.33639978e-07
 1.33639978e-07
 1.33639978e-07
 1.33639978e-07
 1.33639978e-07
 1.33639978e-07
 1.33639978e-07
 1.33639978e-07
 1.33639978e-07
 1.33639978e-07
 1.33639978e-07
 1.37102934e-07
 1.37102934e-07
 1.37102934e-07
 1.37102934e-07
 1.37102934e-07
 1.37102934e-07
 1.37102934e-07
 1.37102934e-07
 1.40564589e-07
 1.40564589e-07
 1.40564589e-07
 1.40564589e-07
 1.40564589e-07
 1.40564589e-07
 1.40564589e-07
 1.40564589e-07
 1.40564589e-07
 1.40564589e-07
 1.40564589e-07
 1.40564589e-07
 1.40564589e-07
 1.40564589e-07
 1.02620531e-07
 1.02620531e-07
 1.02620531e-07
 1.02620531e-07
 1.02620531e-07
 1.02620531e-07
 1.02620531e-07
 1.02620531e-07
 1.02620531e-07
 1.02620531e-07
 5.64415732e-08
 5.64415732e-08
 5.64415732e-08
 5.64415732e-08
 4.06333140e-08
 4.06333140e-08
 2.20487904e-08
 2.20487904e-08
 2.20487904e-08
 3.18768761e-08
 3.18768761e-08
 1.55960880e-08
 1.55960880e-08
 1.66845468e-08
)
)
1
(
101
(
 5.78884176e-06
 5.78884176e-06
 5.78884176e-06
 5.56551872e-06
 5.56551872e-06
 5.56551872e-06
 5.56551872e-06
 5.56551872e-06
 5.56551872e-06
 5.56551872e-06
 5.56551872e-06
 5.56551872e-06
 5.56551872e-06
 5.56551872e-06
 5.56551872e-06
 5.56551872e-06
 5.56551872e-06
 5.56551872e-06
 5.56551872e-06
 5.56551872e-06
 5.56551872e-06
 5.56551872e-06
 5.56551872e-06
 5.56551872e-06
 5.56551872e-06
 5.56551872e-06
 5.56551872e-06
 5.56551872e-06
 5.56551872e-06
 5.56551872e-06
 5.56551872e-06
 5.56551872e-06
 5.56551872e-06
 5.56551872e-06
 5.56551872e-06
 5.56551872e-06
 5.56551872e-06
 5.56551872e-06
 5.56551872e-06
 5.56551872e-06
 5.56551872e-06
 7.80931194e-08
 1.33639978e-07
 1.33639978e-07
 1.33639978e-07
 1.33639978e-07
 1.33639978e-07
 1.33639978e-07
 1.33639978e-07
 1.33639978e-07
 1.33639978e-07
 1.33639978e-07
 1.33639978e-07
 1.33639978e-07
 1.33639978e-07
 1.33639978e-07
 1.37102934e-07
 1.37102934e-07
 1.37102934e-07
 1.37102934e-07
 1.37102934e-07
 1.37102934e-07
 1.37102934e-07
 1.37102934e-07
 1.37102934e-07
 1.40564589e-07
 1.40564589e-07
 1.40564589e-07
 1.40564589e-07
 1.40564589e-07
 1.40564589e-07
 1.40564589e-07
 1.40564589e-07
 1.40564589e-07
 1.40564589e-07
 1.40564589e-07
 1.40564589e-07
 1.40564589e-07
 1.02620531e-07
 1.02620531e-07
 1.02620531e-07
 1.02620531e-07
 1.02620531e-07
 1.02620531e-07
 1.02620531e-07
 1.02620531e-07
 1.02620531e-07
 1.02620531e-07
 5.64415732e-08
 5.64415732e-08
 5.64415732e-08
 5.64415732e-08
 4.06333140e-08
 4.06333140e-08
 2.20487904e-08
 2.20487904e-08
 2.20487904e-08
 2.20487904e-08
 3.18768761e-08
 1.55960880e-08
 1.55960880e-08
)
)
1
(
101
(
 6.17724672e-06
 6.17724672e-06
 5.56551872e-06
 5.56551872e-06
 5.56551872e-06
 5.56551872e-06
 5.56551872e-06
 5.56551872e-06
 5.56551872e-06
 5.56551872e-06
 5.56551872e-06
 5.56551872e-06
 5.56551872e-06
 5.56551872e-06
 5.56551872e-06
 5.56551872e-06
 5.56551872e-06
 5.56551872e-06
 5.56551872e-06
 5.56551872e-06
 5.56551872e-06
 5.56551872e-06
 5.56551872e-06
 5.56551872e-06
 5.56551872e-06
 5.56551872e-06
 5.56551872e-06
 5.56551872e-06
 5.56551872e-06
 5.56551872e-06
 5.56551872e-06
 5.56551872e-06
 5.56551872e-06
 5.56551872e-06
 5.56551872e-06
 5.56551872e-06
 5.56551872e-06
 5.56551872e-06
 5.56551872e-06
 5.56551872e-06
 5.56551872e-06
 7.80931194e-08
 7.80931194e-08
 1.33639978e-07
 1.33639978e-07
 1.33639978e-07
 1.33639978e-07
 1.33639978e-07
 1.33639978e-07
 1.33639978e-07
 1.33639978e-07
 1.33639978e-07
 1.33639978e-07
 1.33639978e-07
 1.33639978e-07
 1.33639978e-07
 1.33639978e-07
 1.37102934e-07
 1.37102934e-07
 1.37102934e-07
 1.37102934e-07
 1.37102934e-07
 1.37102934e-07
 1.37102934e-07
 1.37102934e-07
 1.37102934e-07
 1.40564589e-07
 1.40564589e-07
 1.40564589e-07
 1.40564589e-07
 1.40564589e-07
 1.40564589e-07
 1.40564589e-07
 1.40564589e-07
 1.40564589e-07
 1.40564589e-07
 1.40564589e-07
 1.40564589e-07
 1.40564589e-07
 1.40564589e-07
 1.02620531e-07
 1.02620531e-07
 1.02620531e-07
 1.02620531e-07
 1.02620531e-07
 1.02620531e-07
 1.02620531e-07
 1.02620531e-07
 4.71950454e-08
 5.64415732e-08
 5.64415732e-08
 5.64415732e-08
 1.95786077e-09
 1.95786077e-09
 1.95786077e-09
 2.20487904e-08
 2.20487904e-08
 2.20487904e-08
 2.20487904e-08
 2.20487904e-08
 1.55960880e-08
)
)
1
(
101
(
 7.56065754e-06
 5.56551872e-06
 5.56551872e-06
 5.56551872e-06
 5.56551872e-06
 5.56551872e-06
 5.56551872e-06
 5.56551872e-06
 5.56551872e-06
 5.56551872e-06
 5.56551872e-06
 5.56551872e-06
 5.56551872e-06
 5.56551872e-06
 5.56551872e-06
 5.56551872e-06
 5.56551872e-06
 5.56551872e-06
 5.56551872e-06
 5.56551872e-06
 5.56551872e-06
 5.56551872e-06
 5.56551872e-06
 5.56551872e-06
 5.56551872e-06
 5.56551872e-06
 5.56551872e-06
 5.56551872e-06
 5.56551872e-06
 5.56551872e-06
 5.56551872e-06
 5.56551872e-06
 5.56551872e-06
 5.56551872e-06
 5.56551872e-06
 5.56551872e-06
 5.56551872e-06
 5.56551872e-06
 5.56551872e-06
 5.56551872e-06
 7.80931194e-08
 7.80931194e-08
 7.80931194e-08
 7.80931194e-08
 1.33639978e-07
 1.33639978e-07
 1.33639978e-07
 1.33639978e-07
 1.33639978e-07
 1.33639978e-07
 1.33639978e-07
 1.33639978e-07
 1.33639978e-07
 1.33639978e-07
 1.33639978e-07
 1.33639978e-07
 1.33639978e-07
 1.33639978e-07
 1.37102934e-07
 1.37102934e-07
 1.37102934e-07
 1.37102934e-07
 1.37102934e-07
 1.37102934e-07
 1.37102934e-07
 1.37102934e-07
 1.37102934e-07
 1.37102934e-07
 1.40564589e-07
 1.40564589e-07
 1.40564589e-07
 1.40564589e-07
 1.40564589e-07
 1.40564589e-07
 1.40564589e-07
 1.40564589e-07
 1.40564589e-07
 1.40564589e-07
 1.40564589e-07
 1.40564589e-07
 1.40564589e-07
 1.03815508e-07
 1.02620531e-07
 1.02620531e-07
 1.02620531e-07
 1.02620531e-07
 1.02620531e-07
 1.02620531e-07
 1.02620531e-07
 4.71950454e-08
 4.71950454e-08
 2.86524240e-08
 2.86524240e-08
 1.95786077e-09
 1.95786077e-09
 1.95786077e-09
 1.95786077e-09
 2.20487904e-08
 2.20487904e-08
 2.20487904e-08
 2.20487904e-08
)
)
1
(
101
(
 7.56065754e-06
 6.87323333e-06
 6.87323333e-06
 6.87323333e-06
 6.87323333e-06
 6.87323333e-06
 6.87323333e-06
 6.87323333e-06
 6.87323333e-06
 6.87323333e-06
 6.87323333e-06
 6.87323333e-06
 6.87323333e-06
 6.87323333e-06
 6.87323333e-06
 6.87323333e-06
 6.87323333e-06
 6.87323333e-06
 6.87323333e-06
 6.87323333e-06
 6.87323333e-06
 6.87323333e-06
 6.87323333e-06
 6.87323333e-06
 6.87323333e-06
 6.87323333e-06
 6.87323333e-06
 6.87323333e-06
 6.87323333e-06
 6.87323333e-06
 6.87323333e-06
 6.87323333e-06
 6.87323333e-06
 6.87323333e-06
 6.87323333e-06
 6.87323333e-06
 6.87323333e-06
 6.87323333e-06
 6.87323333e-06
 6.87323333e-06
 7.80931194e-08
 7.80931194e-08
 7.80931194e-08
 7.80931194e-08
 7.80931194e-08
 1.33639978e-07
 1.33639978e-07
 1.33639978e-07
 1.33639978e-07
 1.33639978e-07
 1.33639978e-07
 1.33639978e-07
 1.33639978e-07
 1.33639978e-07
 1.33639978e-07
 1.33639978e-07
 1.33639978e-07
 1.33639978e-07
 1.33639978e-07
 1.37102934e-07
 1.37102934e-07
 1.37102934e-07
 1.37102934e-07
 1.37102934e-07
 1.37102934e-07
 1.37102934e-07
 1.37102934e-07
 1.37102934e-07
 1.37102934e-07
 1.40564589e-07
 1.40564589e-07
 1.40564589e-07
 1.40564589e-07
 1.40564589e-07
 1.40564589e-07
 1.40564589e-07
 1.40564589e-07
 1.40564589e-07
 1.40564589e-07
 1.40564589e-07
 1.40564589e-07
 1.40564589e-07
 1.03815508e-07
 1.03815508e-07
 1.02620531e-07
 1.02620531e-07
 1.02620531e-07
 1.02620531e-07
 1.02620531e-07
 4.71950454e-08
 4.71950454e-08
 4.71950454e-08
 2.86524240e-08
 2.86524240e-08
 1.95786077e-09
 1.95786077e-09
 1.95786077e-09
 1.95786077e-09
 1.95786077e-09
 2.20487904e-08
 2.20487904e-08
)
)
1
(
101
(
 7.09112521e-06
 7.09112521e-06
 7.09112521e-06
 7.09112521e-06
 7.09112521e-06
 7.09112521e-06
 7.09112521e-06
 7.09112521e-06
 7.09112521e-06
 7.09112521e-06
 7.09112521e-06
 7.09112521e-06
 7.09112521e-06
 7.09112521e-06
 7.09112521e-06
 7.09112521e-06
 7.09112521e-06
 7.09112521e-06
 7.09112521e-06
 7.09112521e-06
 7.09112521e-06
 7.09112521e-06
 7.09112521e-06
 7.09112521e-06
 7.09112521e-06
 7.09112521e-06
 7.09112521e-06
 7.09112521e-06
 7.09112521e-06
 7.09112521e-06
 7.09112521e-06
 7.09112521e-06
 7.09112521e-06
 7.09112521e-06
 7.09112521e-06
 7.09112521e-06
 7.09112521e-06
 7.09112521e-06
 7.09112521e-06
 7.09112521e-06
 7.80931194e-08
 7.80931194e-08
 7.80931194e-08
 7.80931194e-08
 7.80931194e-08
 7.80931194e-08
 1.33639978e-07
 1.33639978e-07
 1.33639978e-07
 1.33639978e-07
 1.33639978e-07
 1.33639978e-07
 1.33639978e-07
 1.33639978e-07
 1.33639978e-07
 1.33639978e-07
 1.33639978e-07
 1.33639978e-07
 1.33639978e-07
 1.33639978e-07
 1.33639978e-07
 1.37102934e-07
 1.37102934e-07
 1.37102934e-07
 1.37102934e-07
 1.37102934e-07
 1.37102934e-07
 1.37102934e-07
 1.37102934e-07
 1.37102934e-07
 1.37102934e-07
 1.40564589e-07
 1.40564589e-07
 1.40564589e-07
 1.40564589e-07
 1.40564589e-07
 1.40564589e-07
 1.40564589e-07
 1.40564589e-07
 1.40564589e-07
 1.40564589e-07
 1.40564589e-07
 1.40564589e-07
 1.03815508e-07
 1.03815508e-07
 1.03815508e-07
 1.02620531e-07
 1.02620531e-07
 1.02620531e-07
 1.02620531e-07
 4.71950454e-08
 4.71950454e-08
 4.71950454e-08
 2.86524240e-08
 2.86524240e-08
 1.95786077e-09
 1.95786077e-09
 1.95786077e-09
 1.95786077e-09
 1.95786077e-09
 1.95786077e-09
)
)
1
(
101
(
 7.23632420e-06
 7.23632420e-06
 7.23632420e-06
 7.23632420e-06
 7.23632420e-06
 7.23632420e-06
 7.23632420e-06
 7.23632420e-06
 7.23632420e-06
 7.23632420e-06
 7.23632420e-06
 7.23632420e-06
 7.23632420e-06
 7.23632420e-06
 7.23632420e-06
 7.23632420e-06
 7.23632420e-06
 7.23632420e-06
 7.23632420e-06
 7.23632420e-06
 7.23632420e-06
 7.23632420e-06
 7.23632420e-06
 7.23632420e-06
 7.23632420e-06
 7.23632420e-06
 7.23632420e-06
 7.23632420e-06
 7.23632420e-06
 7.23632420e-06
 7.23632420e-06
 7.23632420e-06
 7.23632420e-06
 7.23632420e-06
 7.23632420e-06
 7.23632420e-06
 7.23632420e-06
 7.23632420e-06
 7.23632420e-06
 7.80931194e-08
 7.80931194e-08
 7.80931194e-08
 7.80931194e-08
 7.80931194e-08
 7.80931194e-08
 7.80931194e-08
 7.80931194e-08
 7.80931194e-08
 1.33639978e-07
 1.33639978e-07
 1.33639978e-07
 1.33639978e-07
 1.33639978e-07
 1.33639978e-07
 1.33639978e-07
 1.33639978e-07
 1.33639978e-07
 1.33639978e-07
 1.33639978e-07
 1.33639978e-07
 1.33639978e-07
 1.33639978e-07
 1.37102934e-07
 1.37102934e-07
 1.37102934e-07
 1.37102934e-07
 1.37102934e-07
 1.37102934e-07
 1.37102934e-07
 1.37102934e-07
 1.37102934e-07
 1.37102934e-07
 1.40564589e-07
 1.40564589e-07
 1.40564589e-07
 1.40564589e-07
 1.40564589e-07
 1.40564589e-07
 1.40564589e-07
 1.40564589e-07
 1.40564589e-07
 1.40564589e-07
 1.40564589e-07
 1.40564589e-07
 1.03815508e-07
 1.03815508e-07
 1.03815508e-07
 1.03815508e-07
 6.10031801e-08
 6.10031801e-08
 6.10031801e-08
 4.71950454e-08
 4.71950454e-08
 4.71950454e-08
 2.86524240e-08
 2.86524240e-08
 1.95786077e-09
 1.95786077e-09
 1.95786077e-09