/*--------------------------------*- C++ -*----------------------------------*\
| =========                 |                                                 |
| \\      /  F ield        | OpenFOAM: The Open Source CFD Toolbox           |
|  \\    /   O peration    | Version:  7                                     |
|   \\  /    A nd          | Web:      http://www.OpenFOAM.com               |
|    \\/     M anipulation |                                                 |
\*---------------------------------------------------------------------------*/

FoamFile
{
    version     2.0;
    format      ascii;
    class       dictionary;
    object      Y_O2_table;
}

Y_O2_table
2
(
101
(
1
(
101
(
 2.32889370e-01
 2.32889370e-01
 2.32889370e-01
 2.32889370e-01
 2.32889370e-01
 2.32889370e-01
 2.32889370e-01
 2.32889370e-01
 2.32889370e-01
 2.32889370e-01
 2.32889370e-01
 2.32889370e-01
 2.32889370e-01
 2.32889370e-01
 2.32889370e-01
 2.32889370e-01
 2.32889370e-01
 2.32889370e-01
 2.32889370e-01
 2.32889370e-01
 2.32889370e-01
 2.32889370e-01
 2.32889370e-01
 2.32889370e-01
 2.32889370e-01
 2.32889370e-01
 2.32889370e-01
 2.32889370e-01
 2.32889370e-01
 2.32889370e-01
 2.32889370e-01
 2.32889370e-01
 2.32889370e-01
 2.32889370e-01
 2.32889370e-01
 2.32889370e-01
 2.32889370e-01
 2.32889370e-01
 2.32889370e-01
 2.32889370e-01
 2.32889370e-01
 2.32889370e-01
 2.32889370e-01
 2.32889370e-01
 2.32889370e-01
 4.33161734e-04
 4.33161734e-04
 2.05569777e-03
 2.05569777e-03
 2.05569777e-03
 2.05569777e-03
 2.05569777e-03
 2.05569777e-03
 2.05569777e-03
 2.05569777e-03
 2.05569777e-03
 2.05569777e-03
 2.05569777e-03
 2.05569777e-03
 2.05569777e-03
 2.05569777e-03
 2.05569777e-03
 2.05569777e-03
 1.82127045e-03
 1.82127045e-03
 1.82127045e-03
 1.82127045e-03
 1.82127045e-03
 1.82127045e-03
 1.82127045e-03
 1.82127045e-03
 1.82127045e-03
 1.82127045e-03
 1.82127045e-03
 1.82127045e-03
 1.76505173e-04
 1.76505173e-04
 1.76505173e-04
 1.76505173e-04
 1.76505173e-04
 1.76505173e-04
 1.76505173e-04
 2.00621961e-04
 2.00621961e-04
 2.00621961e-04
 2.00621961e-04
 2.00621961e-04
 2.00621961e-04
 1.42388312e-04
 1.42388312e-04
 1.42388312e-04
 1.42388312e-04
 1.42388312e-04
 1.42388312e-04
 1.42388312e-04
 3.32225358e-05
 3.32225358e-05
 3.32225358e-05
 3.32225358e-05
 3.32225358e-05
 4.21206403e-07
)
)
1
(
101
(
 2.31941349e-01
 2.31941349e-01
 2.31941349e-01
 2.31941349e-01
 2.31941349e-01
 2.31941349e-01
 2.31941349e-01
 2.31941349e-01
 2.31941349e-01
 2.31941349e-01
 2.31941349e-01
 2.31941349e-01
 2.31941349e-01
 2.31941349e-01
 2.31941349e-01
 2.31941349e-01
 2.31941349e-01
 2.31941349e-01
 2.31941349e-01
 2.31941349e-01
 2.31941349e-01
 2.31941349e-01
 2.31941349e-01
 2.31941349e-01
 2.31941349e-01
 2.31941349e-01
 2.31941349e-01
 2.31941349e-01
 2.31941349e-01
 2.31941349e-01
 2.31941349e-01
 2.31941349e-01
 2.31941349e-01
 2.31941349e-01
 2.31941349e-01
 2.31941349e-01
 2.31941349e-01
 2.31941349e-01
 2.31941349e-01
 2.31941349e-01
 2.31941349e-01
 2.31941349e-01
 2.31941349e-01
 2.31941349e-01
 2.31941349e-01
 4.33161734e-04
 4.33161734e-04
 4.33161734e-04
 2.05569777e-03
 2.05569777e-03
 2.05569777e-03
 2.05569777e-03
 2.05569777e-03
 2.05569777e-03
 2.05569777e-03
 2.05569777e-03
 2.05569777e-03
 2.05569777e-03
 2.05569777e-03
 2.05569777e-03
 2.05569777e-03
 2.05569777e-03
 2.05569777e-03
 2.05569777e-03
 2.05569777e-03
 1.82127045e-03
 1.82127045e-03
 1.82127045e-03
 1.82127045e-03
 1.82127045e-03
 1.82127045e-03
 1.82127045e-03
 1.82127045e-03
 1.82127045e-03
 1.82127045e-03
 1.82127045e-03
 1.82127045e-03
 1.76505173e-04
 1.76505173e-04
 1.76505173e-04
 1.76505173e-04
 1.76505173e-04
 1.76505173e-04
 2.00621961e-04
 2.00621961e-04
 2.00621961e-04
 2.00621961e-04
 2.00621961e-04
 2.00621961e-04
 2.00621961e-04
 1.42388312e-04
 1.42388312e-04
 1.42388312e-04
 1.42388312e-04
 1.42388312e-04
 1.42388312e-04
 7.72303337e-05
 3.32225358e-05
 3.32225358e-05
 3.32225358e-05
 9.42799367e-06
)
)
1
(
101
(
 2.30648634e-01
 2.30648634e-01
 2.30648634e-01
 2.30648634e-01
 2.30648634e-01
 2.30648634e-01
 2.30648634e-01
 2.30648634e-01
 2.30648634e-01
 2.30648634e-01
 2.30648634e-01
 2.30648634e-01
 2.30648634e-01
 2.30648634e-01
 2.30648634e-01
 2.30648634e-01
 2.30648634e-01
 2.30648634e-01
 2.30648634e-01
 2.30648634e-01
 2.30648634e-01
 2.30648634e-01
 2.30648634e-01
 2.30648634e-01
 2.30648634e-01
 2.30648634e-01
 2.30648634e-01
 2.30648634e-01
 2.30648634e-01
 2.30648634e-01
 2.30648634e-01
 2.30648634e-01
 2.30648634e-01
 2.30648634e-01
 2.30648634e-01
 2.30648634e-01
 2.30648634e-01
 2.30648634e-01
 2.30648634e-01
 2.30648634e-01
 2.30648634e-01
 2.30648634e-01
 2.30648634e-01
 2.30648634e-01
 4.33161734e-04
 4.33161734e-04
 4.33161734e-04
 4.33161734e-04
 4.33161734e-04
 4.33161734e-04
 2.05569777e-03
 2.05569777e-03
 2.05569777e-03
 2.05569777e-03
 2.05569777e-03
 2.05569777e-03
 2.05569777e-03
 2.05569777e-03
 2.05569777e-03
 2.05569777e-03
 2.05569777e-03
 2.05569777e-03
 2.05569777e-03
 2.05569777e-03
 2.05569777e-03
 2.05569777e-03
 1.82127045e-03
 1.82127045e-03
 1.82127045e-03
 1.82127045e-03
 1.82127045e-03
 1.82127045e-03
 1.82127045e-03
 1.82127045e-03
 1.82127045e-03
 1.82127045e-03
 1.82127045e-03
 1.82127045e-03
 1.76505173e-04
 1.76505173e-04
 1.76505173e-04
 1.76505173e-04
 1.76505173e-04
 1.76505173e-04
 1.76505173e-04
 2.00621961e-04
 2.00621961e-04
 2.00621961e-04
 2.00621961e-04
 2.00621961e-04
 2.00621961e-04
 1.42388312e-04
 1.42388312e-04
 1.42388312e-04
 1.42388312e-04
 1.42388312e-04
 1.42388312e-04
 7.72303337e-05
 7.72303337e-05
 2.99084659e-05
 2.99084659e-05
)
)
1
(
101
(
 2.29302023e-01
 2.29302023e-01
 2.29302023e-01
 2.29302023e-01
 2.29302023e-01
 2.29302023e-01
 2.29302023e-01
 2.29302023e-01
 2.29302023e-01
 2.29302023e-01
 2.29302023e-01
 2.29302023e-01
 2.29302023e-01
 2.29302023e-01
 2.29302023e-01
 2.29302023e-01
 2.29302023e-01
 2.29302023e-01
 2.29302023e-01
 2.29302023e-01
 2.29302023e-01
 2.29302023e-01
 2.29302023e-01
 2.29302023e-01
 2.29302023e-01
 2.29302023e-01
 2.29302023e-01
 2.29302023e-01
 2.29302023e-01
 2.29302023e-01
 2.29302023e-01
 2.29302023e-01
 2.29302023e-01
 2.29302023e-01
 2.29302023e-01
 2.29302023e-01
 2.29302023e-01
 2.29302023e-01
 2.29302023e-01
 2.29302023e-01
 2.29302023e-01
 2.29302023e-01
 2.29302023e-01
 2.29302023e-01
 3.49022447e-04
 4.33161734e-04
 4.33161734e-04
 4.33161734e-04
 4.33161734e-04
 4.33161734e-04
 4.33161734e-04
 2.05569777e-03
 2.05569777e-03
 2.05569777e-03
 2.05569777e-03
 2.05569777e-03
 2.05569777e-03
 2.05569777e-03
 2.05569777e-03
 2.05569777e-03
 2.05569777e-03
 2.05569777e-03
 2.05569777e-03
 2.05569777e-03
 2.05569777e-03
 2.05569777e-03
 2.05569777e-03
 1.82127045e-03
 1.82127045e-03
 1.82127045e-03
 1.82127045e-03
 1.82127045e-03
 1.82127045e-03
 1.82127045e-03
 1.82127045e-03
 1.82127045e-03
 1.82127045e-03
 1.82127045e-03
 1.82127045e-03
 2.73459777e-04
 1.76505173e-04
 1.76505173e-04
 1.76505173e-04
 1.76505173e-04
 1.76505173e-04
 1.76505173e-04
 2.00621961e-04
 2.00621961e-04
 2.00621961e-04
 2.00621961e-04
 2.00621961e-04
 2.00621961e-04
 2.00621961e-04
 1.42388312e-04
 1.42388312e-04
 1.42388312e-04
 1.42388312e-04
 1.42388312e-04
 7.72303337e-05
 2.37144471e-06
 2.37144471e-06
)
)
1
(
101
(
 2.27891376e-01
 2.27891376e-01
 2.27891376e-01
 2.27891376e-01
 2.27891376e-01
 2.27891376e-01
 2.27891376e-01
 2.27891376e-01
 2.27891376e-01
 2.27891376e-01
 2.27891376e-01
 2.27891376e-01
 2.27891376e-01
 2.27891376e-01
 2.27891376e-01
 2.27891376e-01
 2.27891376e-01
 2.27891376e-01
 2.27891376e-01
 2.27891376e-01
 2.27891376e-01
 2.27891376e-01
 2.27891376e-01
 2.27891376e-01
 2.27891376e-01
 2.27891376e-01
 2.27891376e-01
 2.27891376e-01
 2.27891376e-01
 2.27891376e-01
 2.27891376e-01
 2.27891376e-01
 2.27891376e-01
 2.27891376e-01
 2.27891376e-01
 2.27891376e-01
 2.27891376e-01
 2.27891376e-01
 2.27891376e-01
 2.27891376e-01
 2.27891376e-01
 2.27891376e-01
 2.27891376e-01
 2.27891376e-01
 3.49022447e-04
 3.49022447e-04
 3.49022447e-04
 4.33161734e-04
 4.33161734e-04
 4.33161734e-04
 4.33161734e-04
 4.33161734e-04
 4.33161734e-04
 2.05569777e-03
 2.05569777e-03
 2.05569777e-03
 2.05569777e-03
 2.05569777e-03
 2.05569777e-03
 2.05569777e-03
 2.05569777e-03
 2.05569777e-03
 2.05569777e-03
 2.05569777e-03
 2.05569777e-03
 2.05569777e-03
 2.05569777e-03
 2.05569777e-03
 1.82127045e-03
 1.82127045e-03
 1.82127045e-03
 1.82127045e-03
 1.82127045e-03
 1.82127045e-03
 1.82127045e-03
 1.82127045e-03
 1.82127045e-03
 1.82127045e-03
 1.82127045e-03
 1.82127045e-03
 2.73459777e-04
 1.76505173e-04
 1.76505173e-04
 1.76505173e-04
 1.76505173e-04
 1.76505173e-04
 1.76505173e-04
 1.76505173e-04
 2.00621961e-04
 2.00621961e-04
 2.00621961e-04
 2.00621961e-04
 2.00621961e-04
 2.00621961e-04
 1.28533829e-04
 1.42388312e-04
 1.42388312e-04
 1.42388312e-04
 3.22252383e-05
 3.22252383e-05
 2.37144471e-06
)
)
1
(
101
(
 2.26490964e-01
 2.26490964e-01
 2.26490964e-01
 2.26490964e-01
 2.26490964e-01
 2.26490964e-01
 2.26490964e-01
 2.26490964e-01
 2.26490964e-01
 2.26490964e-01
 2.26490964e-01
 2.26490964e-01
 2.26490964e-01
 2.26490964e-01
 2.26490964e-01
 2.26490964e-01
 2.26490964e-01
 2.26490964e-01
 2.26490964e-01
 2.26490964e-01
 2.26490964e-01
 2.26490964e-01
 2.26490964e-01
 2.26490964e-01
 2.26490964e-01
 2.26490964e-01
 2.26490964e-01
 2.26490964e-01
 2.26490964e-01
 2.26490964e-01
 2.26490964e-01
 2.26490964e-01
 2.26490964e-01
 2.26490964e-01
 2.26490964e-01
 2.26490964e-01
 2.26490964e-01
 2.26490964e-01
 2.26490964e-01
 2.26490964e-01
 2.26490964e-01
 2.26490964e-01
 2.11463315e-01
 3.49022447e-04
 3.49022447e-04
 3.49022447e-04
 3.49022447e-04
 3.49022447e-04
 4.33161734e-04
 4.33161734e-04
 4.33161734e-04
 4.33161734e-04
 4.33161734e-04
 4.33161734e-04
 2.05569777e-03
 2.05569777e-03
 2.05569777e-03
 2.05569777e-03
 2.05569777e-03
 2.05569777e-03
 2.05569777e-03
 2.05569777e-03
 2.05569777e-03
 2.05569777e-03
 2.05569777e-03
 2.05569777e-03
 2.05569777e-03
 2.05569777e-03
 2.05569777e-03
 2.05569777e-03
 1.82127045e-03
 1.82127045e-03
 1.82127045e-03
 1.82127045e-03
 1.82127045e-03
 1.82127045e-03
 1.82127045e-03
 1.82127045e-03
 1.82127045e-03
 1.82127045e-03
 1.82127045e-03
 2.73459777e-04
 2.73459777e-04
 1.76505173e-04
 1.76505173e-04
 1.76505173e-04
 1.76505173e-04
 1.76505173e-04
 1.76505173e-04
 2.00621961e-04
 2.00621961e-04
 2.00621961e-04
 2.00621961e-04
 2.00621961e-04
 2.00621961e-04
 1.28533829e-04
 1.28533829e-04
 6.88139172e-05
 6.88139172e-05
 3.22252383e-05
 3.22252383e-05
)
)
1
(
101
(
 2.25020165e-01
 2.25020165e-01
 2.25020165e-01
 2.25020165e-01
 2.25020165e-01
 2.25020165e-01
 2.25020165e-01
 2.25020165e-01
 2.25020165e-01
 2.25020165e-01
 2.25020165e-01
 2.25020165e-01
 2.25020165e-01
 2.25020165e-01
 2.25020165e-01
 2.25020165e-01
 2.25020165e-01
 2.25020165e-01
 2.25020165e-01
 2.25020165e-01
 2.25020165e-01
 2.25020165e-01
 2.25020165e-01
 2.25020165e-01
 2.25020165e-01
 2.25020165e-01
 2.25020165e-01
 2.25020165e-01
 2.25020165e-01
 2.25020165e-01
 2.25020165e-01
 2.25020165e-01
 2.25020165e-01
 2.11463315e-01
 2.11463315e-01
 2.11463315e-01
 2.11463315e-01
 2.11463315e-01
 2.11463315e-01
 2.11463315e-01
 2.11463315e-01
 2.11463315e-01
 2.11463315e-01
 3.49022447e-04
 3.49022447e-04
 3.49022447e-04
 3.49022447e-04
 3.49022447e-04
 3.49022447e-04
 4.33161734e-04
 4.33161734e-04
 4.33161734e-04
 4.33161734e-04
 4.33161734e-04
 4.33161734e-04
 4.33161734e-04
 2.05569777e-03
 2.05569777e-03
 2.05569777e-03
 2.05569777e-03
 2.05569777e-03
 2.05569777e-03
 2.05569777e-03
 2.05569777e-03
 2.05569777e-03
 2.05569777e-03
 2.05569777e-03
 2.05569777e-03
 2.05569777e-03
 2.05569777e-03
 2.05569777e-03
 1.82127045e-03
 1.82127045e-03
 1.82127045e-03
 1.82127045e-03
 1.82127045e-03
 1.82127045e-03
 1.82127045e-03
 1.82127045e-03
 1.82127045e-03
 1.82127045e-03
 1.82127045e-03
 2.73459777e-04
 2.73459777e-04
 1.76505173e-04
 1.76505173e-04
 1.76505173e-04
 1.76505173e-04
 1.76505173e-04
 1.76505173e-04
 1.76505173e-04
 2.00621961e-04
 2.00621961e-04
 2.00621961e-04
 2.00621961e-04
 2.00621961e-04
 1.28533829e-04
 1.28533829e-04
 6.88139172e-05
 6.88139172e-05
 3.22252383e-05
)
)
1
(
101
(
 2.23451525e-01
 2.23451525e-01
 2.23451525e-01
 2.23451525e-01
 2.23451525e-01
 2.23451525e-01
 2.23451525e-01
 2.23451525e-01
 2.23451525e-01
 2.23451525e-01
 2.23451525e-01
 2.23451525e-01
 2.23451525e-01
 2.23451525e-01
 2.23451525e-01
 2.23451525e-01
 2.23451525e-01
 2.23451525e-01
 2.23451525e-01
 2.23451525e-01
 2.23451525e-01
 2.23451525e-01
 2.23451525e-01
 2.23451525e-01
 2.23451525e-01
 2.23451525e-01
 2.11463315e-01
 2.11463315e-01
 2.11463315e-01
 2.11463315e-01
 2.11463315e-01
 2.11463315e-01
 2.11463315e-01
 2.11463315e-01
 2.11463315e-01
 2.11463315e-01
 2.11463315e-01
 2.11463315e-01
 2.11463315e-01
 2.11463315e-01
 2.11463315e-01
 2.11463315e-01
 2.11463315e-01
 3.49022447e-04
 3.49022447e-04
 3.49022447e-04
 3.49022447e-04
 3.49022447e-04
 3.49022447e-04
 3.49022447e-04
 4.33161734e-04
 4.33161734e-04
 4.33161734e-04
 4.33161734e-04
 4.33161734e-04
 4.33161734e-04
 4.33161734e-04
 2.05569777e-03
 2.05569777e-03
 2.05569777e-03
 2.05569777e-03
 2.05569777e-03
 2.05569777e-03
 2.05569777e-03
 2.05569777e-03
 2.05569777e-03
 2.05569777e-03
 2.05569777e-03
 2.05569777e-03
 2.05569777e-03
 2.05569777e-03
 2.05569777e-03
 1.82127045e-03
 1.82127045e-03
 1.82127045e-03
 1.82127045e-03
 1.82127045e-03
 1.82127045e-03
 1.82127045e-03
 1.82127045e-03
 1.82127045e-03
 1.82127045e-03
 1.82127045e-03
 2.73459777e-04
 2.73459777e-04
 2.73459777e-04
 1.76505173e-04
 1.76505173e-04
 1.76505173e-04
 1.76505173e-04
 1.76505173e-04
 1.76505173e-04
 2.16171509e-04
 2.00621961e-04
 2.00621961e-04
 2.00621961e-04
 6.92408866e-05
 6.92408866e-05
 6.92408866e-05
 6.88139172e-05
 6.88139172e-05
)
)
1
(
101
(
 2.21894474e-01
 2.21894474e-01
 2.21894474e-01
 2.21894474e-01
 2.21894474e-01
 2.21894474e-01
 2.21894474e-01
 2.21894474e-01
 2.21894474e-01
 2.21894474e-01
 2.21894474e-01
 2.21894474e-01
 2.21894474e-01
 2.21894474e-01
 2.21894474e-01
 2.21894474e-01
 2.21894474e-01
 2.21894474e-01
 2.21894474e-01
 2.11463315e-01
 2.11463315e-01
 2.11463315e-01
 2.11463315e-01
 2.11463315e-01
 2.11463315e-01
 2.11463315e-01
 2.11463315e-01
 2.11463315e-01
 2.11463315e-01
 2.11463315e-01
 2.11463315e-01
 2.11463315e-01
 2.11463315e-01
 2.11463315e-01
 2.11463315e-01
 2.11463315e-01
 2.11463315e-01
 2.11463315e-01
 2.11463315e-01
 2.11463315e-01
 2.11463315e-01
 2.11463315e-01
 3.49022447e-04
 3.49022447e-04
 3.49022447e-04
 3.49022447e-04
 3.49022447e-04
 3.49022447e-04
 3.49022447e-04
 3.49022447e-04
 3.49022447e-04
 4.33161734e-04
 4.33161734e-04
 4.33161734e-04
 4.33161734e-04
 4.33161734e-04
 4.33161734e-04
 4.33161734e-04
 4.33161734e-04
 2.05569777e-03
 2.05569777e-03
 2.05569777e-03
 2.05569777e-03
 2.05569777e-03
 2.05569777e-03
 2.05569777e-03
 2.05569777e-03
 2.05569777e-03
 2.05569777e-03
 2.05569777e-03
 2.05569777e-03
 2.05569777e-03
 2.05569777e-03
 1.82127045e-03
 1.82127045e-03
 1.82127045e-03
 1.82127045e-03
 1.82127045e-03
 1.82127045e-03
 1.82127045e-03
 1.82127045e-03
 1.82127045e-03
 1.82127045e-03
 1.82127045e-03
 2.73459777e-04
 2.73459777e-04
 2.73459777e-04
 1.76505173e-04
 1.76505173e-04
 1.76505173e-04
 1.76505173e-04
 1.76505173e-04
 1.76505173e-04
 2.16171509e-04
 2.16171509e-04
 6.54021970e-05
 6.54021970e-05
 6.92408866e-05
 6.92408866e-05
 6.92408866e-05
 6.92408866e-05
)
)
1
(
101
(
 2.20294987e-01
 2.20294987e-01
 2.20294987e-01
 2.20294987e-01
 2.20294987e-01
 2.20294987e-01
 2.20294987e-01
 2.20294987e-01
 2.20294987e-01
 2.20294987e-01
 2.20294987e-01
 2.20294987e-01
 2.20294987e-01
 2.20294987e-01
 2.11463315e-01
 2.11463315e-01
 2.11463315e-01
 2.11463315e-01
 2.11463315e-01
 2.11463315e-01
 2.11463315e-01
 2.11463315e-01
 2.11463315e-01
 2.11463315e-01
 2.11463315e-01
 2.11463315e-01
 2.11463315e-01
 2.11463315e-01
 2.11463315e-01
 2.11463315e-01
 2.11463315e-01
 2.11463315e-01
 2.11463315e-01
 2.11463315e-01
 2.11463315e-01
 2.11463315e-01
 2.11463315e-01
 2.11463315e-01
 2.11463315e-01
 2.11463315e-01
 2.11463315e-01
 2.11463315e-01
 3.49022447e-04
 3.49022447e-04
 3.49022447e-04
 3.49022447e-04
 3.49022447e-04
 3.49022447e-04
 3.49022447e-04
 3.49022447e-04
 3.49022447e-04
 3.49022447e-04
 4.33161734e-04
 4.33161734e-04
 4.33161734e-04
 4.33161734e-04
 4.33161734e-04
 4.33161734e-04
 4.33161734e-04
 4.33161734e-04
 2.05569777e-03
 2.05569777e-03
 2.05569777e-03
 2.05569777e-03
 2.05569777e-03
 2.05569777e-03
 2.05569777e-03
 2.05569777e-03
 2.05569777e-03
 2.05569777e-03
 2.05569777e-03
 2.05569777e-03
 2.05569777e-03
 2.05569777e-03
 2.05569777e-03
 1.82127045e-03
 1.82127045e-03
 1.82127045e-03
 1.82127045e-03
 1.82127045e-03
 1.82127045e-03
 1.82127045e-03
 1.82127045e-03
 1.82127045e-03
 1.82127045e-03
 2.73459777e-04
 2.73459777e-04
 2.73459777e-04
 2.73459777e-04
 1.76505173e-04
 1.76505173e-04
 1.76505173e-04
 1.76505173e-04
 1.76505173e-04
 2.16171509e-04
 2.16171509e-04
 6.54021970e-05
 6.54021970e-05
 6.92408866e-05
 6.92408866e-05
 6.92408866e-05
)
)
1
(
101
(
 2.18600786e-01
 2.18600786e-01
 2.18600786e-01
 2.18600786e-01
 2.18600786e-01
 2.18600786e-01
 2.18600786e-01
 2.18600786e-01
 2.18600786e-01
 2.11463315e-01
 2.11463315e-01
 2.11463315e-01
 2.11463315e-01
 2.11463315e-01
 2.11463315e-01
 2.11463315e-01
 2.11463315e-01
 2.11463315e-01
 2.11463315e-01
 2.11463315e-01
 2.11463315e-01
 2.11463315e-01
 2.11463315e-01
 2.11463315e-01
 2.11463315e-01
 2.11463315e-01
 2.11463315e-01
 2.11463315e-01
 2.11463315e-01
 2.11463315e-01
 2.11463315e-01
 2.11463315e-01
 2.11463315e-01
 2.11463315e-01
 2.11463315e-01
 2.11463315e-01
 2.11463315e-01
 2.11463315e-01
 2.11463315e-01
 2.11463315e-01
 2.11463315e-01
 2.11463315e-01
 3.49022447e-04
 3.49022447e-04
 3.49022447e-04
 3.49022447e-04
 3.49022447e-04
 3.49022447e-04
 3.49022447e-04
 3.49022447e-04
 3.49022447e-04
 3.49022447e-04
 3.49022447e-04
 3.49022447e-04
 4.33161734e-04
 4.33161734e-04
 4.33161734e-04
 4.33161734e-04
 4.33161734e-04
 4.33161734e-04
 4.33161734e-04
 4.33161734e-04
 2.05569777e-03
 2.05569777e-03
 2.05569777e-03
 2.05569777e-03
 2.05569777e-03
 2.05569777e-03
 2.05569777e-03
 2.05569777e-03
 2.05569777e-03
 2.05569777e-03
 2.05569777e-03
 2.05569777e-03
 2.05569777e-03
 2.05569777e-03
 1.82127045e-03
 1.82127045e-03
 1.82127045e-03
 1.82127045e-03
 1.82127045e-03
 1.82127045e-03
 1.82127045e-03
 1.82127045e-03
 1.82127045e-03
 1.82127045e-03
 2.73459777e-04
 2.73459777e-04
 2.73459777e-04
 2.73459777e-04
 1.53232783e-04
 1.76505173e-04
 1.76505173e-04
 1.76505173e-04
 1.76505173e-04
 2.16171509e-04
 2.16171509e-04
 6.54021970e-05
 6.54021970e-05
 6.92408866e-05
 6.92408866e-05
)
)
1
(
101
(
 2.16959110e-01
 2.16959110e-01
 2.16959110e-01
 2.16959110e-01
 2.16959110e-01
 2.16959110e-01
 2.11463315e-01
 2.11463315e-01
 2.11463315e-01
 2.11463315e-01
 2.11463315e-01
 2.11463315e-01
 2.11463315e-01
 2.11463315e-01
 2.11463315e-01
 2.11463315e-01
 2.11463315e-01
 2.11463315e-01
 2.11463315e-01
 2.11463315e-01
 2.11463315e-01
 2.11463315e-01
 2.11463315e-01
 2.11463315e-01
 2.11463315e-01
 2.11463315e-01
 2.11463315e-01
 2.11463315e-01
 2.11463315e-01
 2.11463315e-01
 2.11463315e-01
 2.11463315e-01
 2.11463315e-01
 2.11463315e-01
 2.11463315e-01
 2.11463315e-01
 2.11463315e-01
 2.11463315e-01
 2.11463315e-01
 2.11463315e-01
 2.11463315e-01
 2.11463315e-01
 3.49022447e-04
 3.49022447e-04
 3.49022447e-04
 3.49022447e-04
 3.49022447e-04
 3.49022447e-04
 3.49022447e-04
 3.49022447e-04
 3.49022447e-04
 3.49022447e-04
 3.49022447e-04
 3.49022447e-04
 3.49022447e-04
 4.33161734e-04
 4.33161734e-04
 4.33161734e-04
 4.33161734e-04
 4.33161734e-04
 4.33161734e-04
 4.33161734e-04
 4.33161734e-04
 2.05569777e-03
 2.05569777e-03
 2.05569777e-03
 2.05569777e-03
 2.05569777e-03
 2.05569777e-03
 2.05569777e-03
 2.05569777e-03
 2.05569777e-03
 2.05569777e-03
 2.05569777e-03
 2.05569777e-03
 2.05569777e-03
 2.05569777e-03
 1.82127045e-03
 1.82127045e-03
 1.82127045e-03
 1.82127045e-03
 1.82127045e-03
 1.82127045e-03
 1.82127045e-03
 1.82127045e-03
 1.82127045e-03
 1.82127045e-03
 2.73459777e-04
 2.73459777e-04
 2.73459777e-04
 2.73459777e-04
 1.53232783e-04
 1.53232783e-04
 9.73384033e-05
 9.73384033e-05
 9.73384033e-05
 2.16171509e-04
 2.16171509e-04
 6.54021970e-05
 6.54021970e-05
 6.92408866e-05
)
)
1
(
101
(
 2.15186040e-01
 2.15186040e-01
 2.15186040e-01
 2.11463315e-01
 2.11463315e-01
 2.11463315e-01
 2.11463315e-01
 2.11463315e-01
 2.11463315e-01
 2.11463315e-01
 2.11463315e-01
 2.11463315e-01
 2.11463315e-01
 2.11463315e-01
 2.11463315e-01
 2.11463315e-01
 2.11463315e-01
 2.11463315e-01
 2.11463315e-01
 2.11463315e-01
 2.11463315e-01
 2.11463315e-01
 2.11463315e-01
 2.11463315e-01
 2.11463315e-01
 2.11463315e-01
 2.11463315e-01
 2.11463315e-01
 2.11463315e-01
 2.11463315e-01
 2.11463315e-01
 2.11463315e-01
 2.11463315e-01
 2.11463315e-01
 2.11463315e-01
 2.11463315e-01
 2.11463315e-01
 2.11463315e-01
 2.11463315e-01
 2.11463315e-01
 2.11463315e-01
 1.11368974e-04
 3.49022447e-04
 3.49022447e-04
 3.49022447e-04
 3.49022447e-04
 3.49022447e-04
 3.49022447e-04
 3.49022447e-04
 3.49022447e-04
 3.49022447e-04
 3.49022447e-04
 3.49022447e-04
 3.49022447e-04
 3.49022447e-04
 3.49022447e-04
 4.33161734e-04
 4.33161734e-04
 4.33161734e-04
 4.33161734e-04
 4.33161734e-04
 4.33161734e-04
 4.33161734e-04
 4.33161734e-04
 4.33161734e-04
 2.05569777e-03
 2.05569777e-03
 2.05569777e-03
 2.05569777e-03
 2.05569777e-03
 2.05569777e-03
 2.05569777e-03
 2.05569777e-03
 2.05569777e-03
 2.05569777e-03
 2.05569777e-03
 2.05569777e-03
 2.05569777e-03
 1.82127045e-03
 1.82127045e-03
 1.82127045e-03
 1.82127045e-03
 1.82127045e-03
 1.82127045e-03
 1.82127045e-03
 1.82127045e-03
 1.82127045e-03
 1.82127045e-03
 2.73459777e-04
 2.73459777e-04
 2.73459777e-04
 2.73459777e-04
 1.53232783e-04
 1.53232783e-04
 9.73384033e-05
 9.73384033e-05
 9.73384033e-05
 9.73384033e-05
 2.16171509e-04
 6.54021970e-05
 6.54021970e-05
)
)
1
(
101
(
 2.13692158e-01
 2.13692158e-01
 2.11463315e-01
 2.11463315e-01
 2.11463315e-01
 2.11463315e-01
 2.11463315e-01
 2.11463315e-01
 2.11463315e-01
 2.11463315e-01
 2.11463315e-01
 2.11463315e-01
 2.11463315e-01
 2.11463315e-01
 2.11463315e-01
 2.11463315e-01
 2.11463315e-01
 2.11463315e-01
 2.11463315e-01
 2.11463315e-01
 2.11463315e-01
 2.11463315e-01
 2.11463315e-01
 2.11463315e-01
 2.11463315e-01
 2.11463315e-01
 2.11463315e-01
 2.11463315e-01
 2.11463315e-01
 2.11463315e-01
 2.11463315e-01
 2.11463315e-01
 2.11463315e-01
 2.11463315e-01
 2.11463315e-01
 2.11463315e-01
 2.11463315e-01
 2.11463315e-01
 2.11463315e-01
 2.11463315e-01
 2.11463315e-01
 1.11368974e-04
 1.11368974e-04
 3.49022447e-04
 3.49022447e-04
 3.49022447e-04
 3.49022447e-04
 3.49022447e-04
 3.49022447e-04
 3.49022447e-04
 3.49022447e-04
 3.49022447e-04
 3.49022447e-04
 3.49022447e-04
 3.49022447e-04
 3.49022447e-04
 3.49022447e-04
 4.33161734e-04
 4.33161734e-04
 4.33161734e-04
 4.33161734e-04
 4.33161734e-04
 4.33161734e-04
 4.33161734e-04
 4.33161734e-04
 4.33161734e-04
 2.05569777e-03
 2.05569777e-03
 2.05569777e-03
 2.05569777e-03
 2.05569777e-03
 2.05569777e-03
 2.05569777e-03
 2.05569777e-03
 2.05569777e-03
 2.05569777e-03
 2.05569777e-03
 2.05569777e-03
 2.05569777e-03
 2.05569777e-03
 1.82127045e-03
 1.82127045e-03
 1.82127045e-03
 1.82127045e-03
 1.82127045e-03
 1.82127045e-03
 1.82127045e-03
 1.82127045e-03
 1.76592795e-04
 2.73459777e-04
 2.73459777e-04
 2.73459777e-04
 1.39915043e-06
 1.39915043e-06
 1.39915043e-06
 9.73384033e-05
 9.73384033e-05
 9.73384033e-05
 9.73384033e-05
 9.73384033e-05
 6.54021970e-05
)
)
1
(
101
(
 2.12363810e-01
 2.11463315e-01
 2.11463315e-01
 2.11463315e-01
 2.11463315e-01
 2.11463315e-01
 2.11463315e-01
 2.11463315e-01
 2.11463315e-01
 2.11463315e-01
 2.11463315e-01
 2.11463315e-01
 2.11463315e-01
 2.11463315e-01
 2.11463315e-01
 2.11463315e-01
 2.11463315e-01
 2.11463315e-01
 2.11463315e-01
 2.11463315e-01
 2.11463315e-01
 2.11463315e-01
 2.11463315e-01
 2.11463315e-01
 2.11463315e-01
 2.11463315e-01
 2.11463315e-01
 2.11463315e-01
 2.11463315e-01
 2.11463315e-01
 2.11463315e-01
 2.11463315e-01
 2.11463315e-01
 2.11463315e-01
 2.11463315e-01
 2.11463315e-01
 2.11463315e-01
 2.11463315e-01
 2.11463315e-01
 2.11463315e-01
 1.11368974e-04
 1.11368974e-04
 1.11368974e-04
 1.11368974e-04
 3.49022447e-04
 3.49022447e-04
 3.49022447e-04
 3.49022447e-04
 3.49022447e-04
 3.49022447e-04
 3.49022447e-04
 3.49022447e-04
 3.49022447e-04
 3.49022447e-04
 3.49022447e-04
 3.49022447e-04
 3.49022447e-04
 3.49022447e-04
 4.33161734e-04
 4.33161734e-04
 4.33161734e-04
 4.33161734e-04
 4.33161734e-04
 4.33161734e-04
 4.33161734e-04
 4.33161734e-04
 4.33161734e-04
 4.33161734e-04
 2.05569777e-03
 2.05569777e-03
 2.05569777e-03
 2.05569777e-03
 2.05569777e-03
 2.05569777e-03
 2.05569777e-03
 2.05569777e-03
 2.05569777e-03
 2.05569777e-03
 2.05569777e-03
 2.05569777e-03
 2.05569777e-03
 4.08996553e-04
 1.82127045e-03
 1.82127045e-03
 1.82127045e-03
 1.82127045e-03
 1.82127045e-03
 1.82127045e-03
 1.82127045e-03
 1.76592795e-04
 1.76592795e-04
 5.66404757e-05
 5.66404757e-05
 1.39915043e-06
 1.39915043e-06
 1.39915043e-06
 1.39915043e-06
 9.73384033e-05
 9.73384033e-05
 9.73384033e-05
 9.73384033e-05
)
)
1
(
101
(
 2.12363810e-01
 2.10106016e-01
 2.10106016e-01
 2.10106016e-01
 2.10106016e-01
 2.10106016e-01
 2.10106016e-01
 2.10106016e-01
 2.10106016e-01
 2.10106016e-01
 2.10106016e-01
 2.10106016e-01
 2.10106016e-01
 2.10106016e-01
 2.10106016e-01
 2.10106016e-01
 2.10106016e-01
 2.10106016e-01
 2.10106016e-01
 2.10106016e-01
 2.10106016e-01
 2.10106016e-01
 2.10106016e-01
 2.10106016e-01
 2.10106016e-01
 2.10106016e-01
 2.10106016e-01
 2.10106016e-01
 2.10106016e-01
 2.10106016e-01
 2.10106016e-01
 2.10106016e-01
 2.10106016e-01
 2.10106016e-01
 2.10106016e-01
 2.10106016e-01
 2.10106016e-01
 2.10106016e-01
 2.10106016e-01
 2.10106016e-01
 1.11368974e-04
 1.11368974e-04
 1.11368974e-04
 1.11368974e-04
 1.11368974e-04
 3.49022447e-04
 3.49022447e-04
 3.49022447e-04
 3.49022447e-04
 3.49022447e-04
 3.49022447e-04
 3.49022447e-04
 3.49022447e-04
 3.49022447e-04
 3.49022447e-04
 3.49022447e-04
 3.49022447e-04
 3.49022447e-04
 3.49022447e-04
 4.33161734e-04
 4.33161734e-04
 4.33161734e-04
 4.33161734e-04
 4.33161734e-04
 4.33161734e-04
 4.33161734e-04
 4.33161734e-04
 4.33161734e-04
 4.33161734e-04
 2.05569777e-03
 2.05569777e-03
 2.05569777e-03
 2.05569777e-03
 2.05569777e-03
 2.05569777e-03
 2.05569777e-03
 2.05569777e-03
 2.05569777e-03
 2.05569777e-03
 2.05569777e-03
 2.05569777e-03
 2.05569777e-03
 4.08996553e-04
 4.08996553e-04
 1.82127045e-03
 1.82127045e-03
 1.82127045e-03
 1.82127045e-03
 1.82127045e-03
 1.76592795e-04
 1.76592795e-04
 1.76592795e-04
 5.66404757e-05
 5.66404757e-05
 1.39915043e-06
 1.39915043e-06
 1.39915043e-06
 1.39915043e-06
 1.39915043e-06
 9.73384033e-05
 9.73384033e-05
)
)
1
(
101
(
 2.08226595e-01
 2.08226595e-01
 2.08226595e-01
 2.08226595e-01
 2.08226595e-01
 2.08226595e-01
 2.08226595e-01
 2.08226595e-01
 2.08226595e-01
 2.08226595e-01
 2.08226595e-01
 2.08226595e-01
 2.08226595e-01
 2.08226595e-01
 2.08226595e-01
 2.08226595e-01
 2.08226595e-01
 2.08226595e-01
 2.08226595e-01
 2.08226595e-01
 2.08226595e-01
 2.08226595e-01
 2.08226595e-01
 2.08226595e-01
 2.08226595e-01
 2.08226595e-01
 2.08226595e-01
 2.08226595e-01
 2.08226595e-01
 2.08226595e-01
 2.08226595e-01
 2.08226595e-01
 2.08226595e-01
 2.08226595e-01
 2.08226595e-01
 2.08226595e-01
 2.08226595e-01
 2.08226595e-01
 2.08226595e-01
 2.08226595e-01
 1.11368974e-04
 1.11368974e-04
 1.11368974e-04
 1.11368974e-04
 1.11368974e-04
 1.11368974e-04
 3.49022447e-04
 3.49022447e-04
 3.49022447e-04
 3.49022447e-04
 3.49022447e-04
 3.49022447e-04
 3.49022447e-04
 3.49022447e-04
 3.49022447e-04
 3.49022447e-04
 3.49022447e-04
 3.49022447e-04
 3.49022447e-04
 3.49022447e-04
 3.49022447e-04
 4.33161734e-04
 4.33161734e-04
 4.33161734e-04
 4.33161734e-04
 4.33161734e-04
 4.33161734e-04
 4.33161734e-04
 4.33161734e-04
 4.33161734e-04
 4.33161734e-04
 2.05569777e-03
 2.05569777e-03
 2.05569777e-03
 2.05569777e-03
 2.05569777e-03
 2.05569777e-03
 2.05569777e-03
 2.05569777e-03
 2.05569777e-03
 2.05569777e-03
 2.05569777e-03
 2.05569777e-03
 4.08996553e-04
 4.08996553e-04
 4.08996553e-04
 1.82127045e-03
 1.82127045e-03
 1.82127045e-03
 1.82127045e-03
 1.76592795e-04
 1.76592795e-04
 1.76592795e-04
 5.66404757e-05
 5.66404757e-05
 1.39915043e-06
 1.39915043e-06
 1.39915043e-06
 1.39915043e-06
 1.39915043e-06
 1.39915043e-06
)
)
1
(
101
(
 2.06377501e-01
 2.06377501e-01
 2.06377501e-01
 2.06377501e-01
 2.06377501e-01
 2.06377501e-01
 2.06377501e-01
 2.06377501e-01
 2.06377501e-01
 2.06377501e-01
 2.06377501e-01
 2.06377501e-01
 2.06377501e-01
 2.06377501e-01
 2.06377501e-01
 2.06377501e-01
 2.06377501e-01
 2.06377501e-01
 2.06377501e-01
 2.06377501e-01
 2.06377501e-01
 2.06377501e-01
 2.06377501e-01
 2.06377501e-01
 2.06377501e-01
 2.06377501e-01
 2.06377501e-01
 2.06377501e-01
 2.06377501e-01
 2.06377501e-01
 2.06377501e-01
 2.06377501e-01
 2.06377501e-01
 2.06377501e-01
 2.06377501e-01
 2.06377501e-01
 2.06377501e-01
 2.06377501e-01
 2.06377501e-01
 1.11368974e-04
 1.11368974e-04
 1.11368974e-04
 1.11368974e-04
 1.11368974e-04
 1.11368974e-04
 1.11368974e-04
 1.11368974e-04
 1.11368974e-04
 3.49022447e-04
 3.49022447e-04
 3.49022447e-04
 3.49022447e-04
 3.49022447e-04
 3.49022447e-04
 3.49022447e-04
 3.49022447e-04
 3.49022447e-04
 3.49022447e-04
 3.49022447e-04
 3.49022447e-04
 3.49022447e-04
 3.49022447e-04
 4.33161734e-04
 4.33161734e-04
 4.33161734e-04
 4.33161734e-04
 4.33161734e-04
 4.33161734e-04
 4.33161734e-04
 4.33161734e-04
 4.33161734e-04
 4.33161734e-04
 2.05569777e-03
 2.05569777e-03
 2.05569777e-03
 2.05569777e-03
 2.05569777e-03
 2.05569777e-03
 2.05569777e-03
 2.05569777e-03
 2.05569777e-03
 2.05569777e-03
 2.05569777e-03
 2.05569777e-03
 4.08996553e-04
 4.08996553e-04
 4.08996553e-04
 4.08996553e-04
 2.46442468e-04
 2.46442468e-04
 2.46442468e-04
 1.76592795e-04
 1.76592795e-04
 1.76592795e-04
 5.66404757e-05
 5.66404757e-05
 1.39915043e-06
 1.39915043e-06
 1.39915043e-06