/*--------------------------------*- C++ -*----------------------------------*\
| =========                 |                                                 |
| \\      /  F ield        | OpenFOAM: The Open Source CFD Toolbox           |
|  \\    /   O peration    | Version:  7                                     |
|   \\  /    A nd          | Web:      http://www.OpenFOAM.com               |
|    \\/     M anipulation |                                                 |
\*---------------------------------------------------------------------------*/

FoamFile
{
    version     2.0;
    format      ascii;
    class       dictionary;
    object      Y_O_table;
}

Y_O_table
2
(
101
(
1
(
101
(
 1.59300337e-09
 1.59300337e-09
 1.59300337e-09
 1.59300337e-09
 1.59300337e-09
 1.59300337e-09
 1.59300337e-09
 1.59300337e-09
 1.59300337e-09
 1.59300337e-09
 1.59300337e-09
 1.59300337e-09
 1.59300337e-09
 1.59300337e-09
 1.59300337e-09
 1.59300337e-09
 1.59300337e-09
 1.59300337e-09
 1.59300337e-09
 1.59300337e-09
 1.59300337e-09
 1.59300337e-09
 1.59300337e-09
 1.59300337e-09
 1.59300337e-09
 1.59300337e-09
 1.59300337e-09
 1.59300337e-09
 1.59300337e-09
 1.59300337e-09
 1.59300337e-09
 1.59300337e-09
 1.59300337e-09
 1.59300337e-09
 1.59300337e-09
 1.59300337e-09
 1.59300337e-09
 1.59300337e-09
 1.59300337e-09
 1.59300337e-09
 1.59300337e-09
 1.59300337e-09
 1.59300337e-09
 1.59300337e-09
 1.59300337e-09
 9.93431525e-12
 9.93431525e-12
 3.51669961e-11
 3.51669961e-11
 3.51669961e-11
 3.51669961e-11
 3.51669961e-11
 3.51669961e-11
 3.51669961e-11
 3.51669961e-11
 3.51669961e-11
 3.51669961e-11
 3.51669961e-11
 3.51669961e-11
 3.51669961e-11
 3.51669961e-11
 3.51669961e-11
 3.51669961e-11
 2.50734538e-11
 2.50734538e-11
 2.50734538e-11
 2.50734538e-11
 2.50734538e-11
 2.50734538e-11
 2.50734538e-11
 2.50734538e-11
 2.50734538e-11
 2.50734538e-11
 2.50734538e-11
 2.50734538e-11
 3.25791852e-12
 3.25791852e-12
 3.25791852e-12
 3.25791852e-12
 3.25791852e-12
 3.25791852e-12
 3.25791852e-12
 3.87867567e-12
 3.87867567e-12
 3.87867567e-12
 3.87867567e-12
 3.87867567e-12
 3.87867567e-12
 2.53097810e-12
 2.53097810e-12
 2.53097810e-12
 2.53097810e-12
 2.53097810e-12
 2.53097810e-12
 2.53097810e-12
 6.43110326e-13
 6.43110326e-13
 6.43110326e-13
 6.43110326e-13
 6.43110326e-13
 1.35839564e-14
)
)
1
(
101
(
 5.89390471e-08
 5.89390471e-08
 5.89390471e-08
 5.89390471e-08
 5.89390471e-08
 5.89390471e-08
 5.89390471e-08
 5.89390471e-08
 5.89390471e-08
 5.89390471e-08
 5.89390471e-08
 5.89390471e-08
 5.89390471e-08
 5.89390471e-08
 5.89390471e-08
 5.89390471e-08
 5.89390471e-08
 5.89390471e-08
 5.89390471e-08
 5.89390471e-08
 5.89390471e-08
 5.89390471e-08
 5.89390471e-08
 5.89390471e-08
 5.89390471e-08
 5.89390471e-08
 5.89390471e-08
 5.89390471e-08
 5.89390471e-08
 5.89390471e-08
 5.89390471e-08
 5.89390471e-08
 5.89390471e-08
 5.89390471e-08
 5.89390471e-08
 5.89390471e-08
 5.89390471e-08
 5.89390471e-08
 5.89390471e-08
 5.89390471e-08
 5.89390471e-08
 5.89390471e-08
 5.89390471e-08
 5.89390471e-08
 5.89390471e-08
 9.93431525e-12
 9.93431525e-12
 9.93431525e-12
 3.51669961e-11
 3.51669961e-11
 3.51669961e-11
 3.51669961e-11
 3.51669961e-11
 3.51669961e-11
 3.51669961e-11
 3.51669961e-11
 3.51669961e-11
 3.51669961e-11
 3.51669961e-11
 3.51669961e-11
 3.51669961e-11
 3.51669961e-11
 3.51669961e-11
 3.51669961e-11
 3.51669961e-11
 2.50734538e-11
 2.50734538e-11
 2.50734538e-11
 2.50734538e-11
 2.50734538e-11
 2.50734538e-11
 2.50734538e-11
 2.50734538e-11
 2.50734538e-11
 2.50734538e-11
 2.50734538e-11
 2.50734538e-11
 3.25791852e-12
 3.25791852e-12
 3.25791852e-12
 3.25791852e-12
 3.25791852e-12
 3.25791852e-12
 3.87867567e-12
 3.87867567e-12
 3.87867567e-12
 3.87867567e-12
 3.87867567e-12
 3.87867567e-12
 3.87867567e-12
 2.53097810e-12
 2.53097810e-12
 2.53097810e-12
 2.53097810e-12
 2.53097810e-12
 2.53097810e-12
 1.32133176e-12
 6.43110326e-13
 6.43110326e-13
 6.43110326e-13
 2.45152903e-13
)
)
1
(
101
(
 1.24535941e-07
 1.24535941e-07
 1.24535941e-07
 1.24535941e-07
 1.24535941e-07
 1.24535941e-07
 1.24535941e-07
 1.24535941e-07
 1.24535941e-07
 1.24535941e-07
 1.24535941e-07
 1.24535941e-07
 1.24535941e-07
 1.24535941e-07
 1.24535941e-07
 1.24535941e-07
 1.24535941e-07
 1.24535941e-07
 1.24535941e-07
 1.24535941e-07
 1.24535941e-07
 1.24535941e-07
 1.24535941e-07
 1.24535941e-07
 1.24535941e-07
 1.24535941e-07
 1.24535941e-07
 1.24535941e-07
 1.24535941e-07
 1.24535941e-07
 1.24535941e-07
 1.24535941e-07
 1.24535941e-07
 1.24535941e-07
 1.24535941e-07
 1.24535941e-07
 1.24535941e-07
 1.24535941e-07
 1.24535941e-07
 1.24535941e-07
 1.24535941e-07
 1.24535941e-07
 1.24535941e-07
 1.24535941e-07
 9.93431525e-12
 9.93431525e-12
 9.93431525e-12
 9.93431525e-12
 9.93431525e-12
 9.93431525e-12
 3.51669961e-11
 3.51669961e-11
 3.51669961e-11
 3.51669961e-11
 3.51669961e-11
 3.51669961e-11
 3.51669961e-11
 3.51669961e-11
 3.51669961e-11
 3.51669961e-11
 3.51669961e-11
 3.51669961e-11
 3.51669961e-11
 3.51669961e-11
 3.51669961e-11
 3.51669961e-11
 2.50734538e-11
 2.50734538e-11
 2.50734538e-11
 2.50734538e-11
 2.50734538e-11
 2.50734538e-11
 2.50734538e-11
 2.50734538e-11
 2.50734538e-11
 2.50734538e-11
 2.50734538e-11
 2.50734538e-11
 3.25791852e-12
 3.25791852e-12
 3.25791852e-12
 3.25791852e-12
 3.25791852e-12
 3.25791852e-12
 3.25791852e-12
 3.87867567e-12
 3.87867567e-12
 3.87867567e-12
 3.87867567e-12
 3.87867567e-12
 3.87867567e-12
 2.53097810e-12
 2.53097810e-12
 2.53097810e-12
 2.53097810e-12
 2.53097810e-12
 2.53097810e-12
 1.32133176e-12
 1.32133176e-12
 6.30927683e-13
 6.30927683e-13
)
)
1
(
101
(
 1.68449353e-07
 1.68449353e-07
 1.68449353e-07
 1.68449353e-07
 1.68449353e-07
 1.68449353e-07
 1.68449353e-07
 1.68449353e-07
 1.68449353e-07
 1.68449353e-07
 1.68449353e-07
 1.68449353e-07
 1.68449353e-07
 1.68449353e-07
 1.68449353e-07
 1.68449353e-07
 1.68449353e-07
 1.68449353e-07
 1.68449353e-07
 1.68449353e-07
 1.68449353e-07
 1.68449353e-07
 1.68449353e-07
 1.68449353e-07
 1.68449353e-07
 1.68449353e-07
 1.68449353e-07
 1.68449353e-07
 1.68449353e-07
 1.68449353e-07
 1.68449353e-07
 1.68449353e-07
 1.68449353e-07
 1.68449353e-07
 1.68449353e-07
 1.68449353e-07
 1.68449353e-07
 1.68449353e-07
 1.68449353e-07
 1.68449353e-07
 1.68449353e-07
 1.68449353e-07
 1.68449353e-07
 1.68449353e-07
 7.73556580e-12
 9.93431525e-12
 9.93431525e-12
 9.93431525e-12
 9.93431525e-12
 9.93431525e-12
 9.93431525e-12
 3.51669961e-11
 3.51669961e-11
 3.51669961e-11
 3.51669961e-11
 3.51669961e-11
 3.51669961e-11
 3.51669961e-11
 3.51669961e-11
 3.51669961e-11
 3.51669961e-11
 3.51669961e-11
 3.51669961e-11
 3.51669961e-11
 3.51669961e-11
 3.51669961e-11
 3.51669961e-11
 2.50734538e-11
 2.50734538e-11
 2.50734538e-11
 2.50734538e-11
 2.50734538e-11
 2.50734538e-11
 2.50734538e-11
 2.50734538e-11
 2.50734538e-11
 2.50734538e-11
 2.50734538e-11
 2.50734538e-11
 5.40991237e-12
 3.25791852e-12
 3.25791852e-12
 3.25791852e-12
 3.25791852e-12
 3.25791852e-12
 3.25791852e-12
 3.87867567e-12
 3.87867567e-12
 3.87867567e-12
 3.87867567e-12
 3.87867567e-12
 3.87867567e-12
 3.87867567e-12
 2.53097810e-12
 2.53097810e-12
 2.53097810e-12
 2.53097810e-12
 2.53097810e-12
 1.32133176e-12
 1.09237947e-14
 1.09237947e-14
)
)
1
(
101
(
 2.71035720e-07
 2.71035720e-07
 2.71035720e-07
 2.71035720e-07
 2.71035720e-07
 2.71035720e-07
 2.71035720e-07
 2.71035720e-07
 2.71035720e-07
 2.71035720e-07
 2.71035720e-07
 2.71035720e-07
 2.71035720e-07
 2.71035720e-07
 2.71035720e-07
 2.71035720e-07
 2.71035720e-07
 2.71035720e-07
 2.71035720e-07
 2.71035720e-07
 2.71035720e-07
 2.71035720e-07
 2.71035720e-07
 2.71035720e-07
 2.71035720e-07
 2.71035720e-07
 2.71035720e-07
 2.71035720e-07
 2.71035720e-07
 2.71035720e-07
 2.71035720e-07
 2.71035720e-07
 2.71035720e-07
 2.71035720e-07
 2.71035720e-07
 2.71035720e-07
 2.71035720e-07
 2.71035720e-07
 2.71035720e-07
 2.71035720e-07
 2.71035720e-07
 2.71035720e-07
 2.71035720e-07
 2.71035720e-07
 7.73556580e-12
 7.73556580e-12
 7.73556580e-12
 9.93431525e-12
 9.93431525e-12
 9.93431525e-12
 9.93431525e-12
 9.93431525e-12
 9.93431525e-12
 3.51669961e-11
 3.51669961e-11
 3.51669961e-11
 3.51669961e-11
 3.51669961e-11
 3.51669961e-11
 3.51669961e-11
 3.51669961e-11
 3.51669961e-11
 3.51669961e-11
 3.51669961e-11
 3.51669961e-11
 3.51669961e-11
 3.51669961e-11
 3.51669961e-11
 2.50734538e-11
 2.50734538e-11
 2.50734538e-11
 2.50734538e-11
 2.50734538e-11
 2.50734538e-11
 2.50734538e-11
 2.50734538e-11
 2.50734538e-11
 2.50734538e-11
 2.50734538e-11
 2.50734538e-11
 5.40991237e-12
 3.25791852e-12
 3.25791852e-12
 3.25791852e-12
 3.25791852e-12
 3.25791852e-12
 3.25791852e-12
 3.25791852e-12
 3.87867567e-12
 3.87867567e-12
 3.87867567e-12
 3.87867567e-12
 3.87867567e-12
 3.87867567e-12
 1.90369055e-12
 2.53097810e-12
 2.53097810e-12
 2.53097810e-12
 6.40210586e-13
 6.40210586e-13
 1.09237947e-14
)
)
1
(
101
(
 3.49165493e-07
 3.49165493e-07
 3.49165493e-07
 3.49165493e-07
 3.49165493e-07
 3.49165493e-07
 3.49165493e-07
 3.49165493e-07
 3.49165493e-07
 3.49165493e-07
 3.49165493e-07
 3.49165493e-07
 3.49165493e-07
 3.49165493e-07
 3.49165493e-07
 3.49165493e-07
 3.49165493e-07
 3.49165493e-07
 3.49165493e-07
 3.49165493e-07
 3.49165493e-07
 3.49165493e-07
 3.49165493e-07
 3.49165493e-07
 3.49165493e-07
 3.49165493e-07
 3.49165493e-07
 3.49165493e-07
 3.49165493e-07
 3.49165493e-07
 3.49165493e-07
 3.49165493e-07
 3.49165493e-07
 3.49165493e-07
 3.49165493e-07
 3.49165493e-07
 3.49165493e-07
 3.49165493e-07
 3.49165493e-07
 3.49165493e-07
 3.49165493e-07
 3.49165493e-07
 4.69790515e-06
 7.73556580e-12
 7.73556580e-12
 7.73556580e-12
 7.73556580e-12
 7.73556580e-12
 9.93431525e-12
 9.93431525e-12
 9.93431525e-12
 9.93431525e-12
 9.93431525e-12
 9.93431525e-12
 3.51669961e-11
 3.51669961e-11
 3.51669961e-11
 3.51669961e-11
 3.51669961e-11
 3.51669961e-11
 3.51669961e-11
 3.51669961e-11
 3.51669961e-11
 3.51669961e-11
 3.51669961e-11
 3.51669961e-11
 3.51669961e-11
 3.51669961e-11
 3.51669961e-11
 3.51669961e-11
 2.50734538e-11
 2.50734538e-11
 2.50734538e-11
 2.50734538e-11
 2.50734538e-11
 2.50734538e-11
 2.50734538e-11
 2.50734538e-11
 2.50734538e-11
 2.50734538e-11
 2.50734538e-11
 5.40991237e-12
 5.40991237e-12
 3.25791852e-12
 3.25791852e-12
 3.25791852e-12
 3.25791852e-12
 3.25791852e-12
 3.25791852e-12
 3.87867567e-12
 3.87867567e-12
 3.87867567e-12
 3.87867567e-12
 3.87867567e-12
 3.87867567e-12
 1.90369055e-12
 1.90369055e-12
 1.31466592e-12
 1.31466592e-12
 6.40210586e-13
 6.40210586e-13
)
)
1
(
101
(
 4.39368261e-07
 4.39368261e-07
 4.39368261e-07
 4.39368261e-07
 4.39368261e-07
 4.39368261e-07
 4.39368261e-07
 4.39368261e-07
 4.39368261e-07
 4.39368261e-07
 4.39368261e-07
 4.39368261e-07
 4.39368261e-07
 4.39368261e-07
 4.39368261e-07
 4.39368261e-07
 4.39368261e-07
 4.39368261e-07
 4.39368261e-07
 4.39368261e-07
 4.39368261e-07
 4.39368261e-07
 4.39368261e-07
 4.39368261e-07
 4.39368261e-07
 4.39368261e-07
 4.39368261e-07
 4.39368261e-07
 4.39368261e-07
 4.39368261e-07
 4.39368261e-07
 4.39368261e-07
 4.39368261e-07
 4.69790515e-06
 4.69790515e-06
 4.69790515e-06
 4.69790515e-06
 4.69790515e-06
 4.69790515e-06
 4.69790515e-06
 4.69790515e-06
 4.69790515e-06
 4.69790515e-06
 7.73556580e-12
 7.73556580e-12
 7.73556580e-12
 7.73556580e-12
 7.73556580e-12
 7.73556580e-12
 9.93431525e-12
 9.93431525e-12
 9.93431525e-12
 9.93431525e-12
 9.93431525e-12
 9.93431525e-12
 9.93431525e-12
 3.51669961e-11
 3.51669961e-11
 3.51669961e-11
 3.51669961e-11
 3.51669961e-11
 3.51669961e-11
 3.51669961e-11
 3.51669961e-11
 3.51669961e-11
 3.51669961e-11
 3.51669961e-11
 3.51669961e-11
 3.51669961e-11
 3.51669961e-11
 3.51669961e-11
 2.50734538e-11
 2.50734538e-11
 2.50734538e-11
 2.50734538e-11
 2.50734538e-11
 2.50734538e-11
 2.50734538e-11
 2.50734538e-11
 2.50734538e-11
 2.50734538e-11
 2.50734538e-11
 5.40991237e-12
 5.40991237e-12
 3.25791852e-12
 3.25791852e-12
 3.25791852e-12
 3.25791852e-12
 3.25791852e-12
 3.25791852e-12
 3.25791852e-12
 3.87867567e-12
 3.87867567e-12
 3.87867567e-12
 3.87867567e-12
 3.87867567e-12
 1.90369055e-12
 1.90369055e-12
 1.31466592e-12
 1.31466592e-12
 6.40210586e-13
)
)
1
(
101
(
 6.34736156e-07
 6.34736156e-07
 6.34736156e-07
 6.34736156e-07
 6.34736156e-07
 6.34736156e-07
 6.34736156e-07
 6.34736156e-07
 6.34736156e-07
 6.34736156e-07
 6.34736156e-07
 6.34736156e-07
 6.34736156e-07
 6.34736156e-07
 6.34736156e-07
 6.34736156e-07
 6.34736156e-07
 6.34736156e-07
 6.34736156e-07
 6.34736156e-07
 6.34736156e-07
 6.34736156e-07
 6.34736156e-07
 6.34736156e-07
 6.34736156e-07
 6.34736156e-07
 4.69790515e-06
 4.69790515e-06
 4.69790515e-06
 4.69790515e-06
 4.69790515e-06
 4.69790515e-06
 4.69790515e-06
 4.69790515e-06
 4.69790515e-06
 4.69790515e-06
 4.69790515e-06
 4.69790515e-06
 4.69790515e-06
 4.69790515e-06
 4.69790515e-06
 4.69790515e-06
 4.69790515e-06
 7.73556580e-12
 7.73556580e-12
 7.73556580e-12
 7.73556580e-12
 7.73556580e-12
 7.73556580e-12
 7.73556580e-12
 9.93431525e-12
 9.93431525e-12
 9.93431525e-12
 9.93431525e-12
 9.93431525e-12
 9.93431525e-12
 9.93431525e-12
 3.51669961e-11
 3.51669961e-11
 3.51669961e-11
 3.51669961e-11
 3.51669961e-11
 3.51669961e-11
 3.51669961e-11
 3.51669961e-11
 3.51669961e-11
 3.51669961e-11
 3.51669961e-11
 3.51669961e-11
 3.51669961e-11
 3.51669961e-11
 3.51669961e-11
 2.50734538e-11
 2.50734538e-11
 2.50734538e-11
 2.50734538e-11
 2.50734538e-11
 2.50734538e-11
 2.50734538e-11
 2.50734538e-11
 2.50734538e-11
 2.50734538e-11
 2.50734538e-11
 5.40991237e-12
 5.40991237e-12
 5.40991237e-12
 3.25791852e-12
 3.25791852e-12
 3.25791852e-12
 3.25791852e-12
 3.25791852e-12
 3.25791852e-12
 3.66565410e-12
 3.87867567e-12
 3.87867567e-12
 3.87867567e-12
 1.38349106e-12
 1.38349106e-12
 1.38349106e-12
 1.31466592e-12
 1.31466592e-12
)
)
1
(
101
(
 7.27341136e-07
 7.27341136e-07
 7.27341136e-07
 7.27341136e-07
 7.27341136e-07
 7.27341136e-07
 7.27341136e-07
 7.27341136e-07
 7.27341136e-07
 7.27341136e-07
 7.27341136e-07
 7.27341136e-07
 7.27341136e-07
 7.27341136e-07
 7.27341136e-07
 7.27341136e-07
 7.27341136e-07
 7.27341136e-07
 7.27341136e-07
 4.69790515e-06
 4.69790515e-06
 4.69790515e-06
 4.69790515e-06
 4.69790515e-06
 4.69790515e-06
 4.69790515e-06
 4.69790515e-06
 4.69790515e-06
 4.69790515e-06
 4.69790515e-06
 4.69790515e-06
 4.69790515e-06
 4.69790515e-06
 4.69790515e-06
 4.69790515e-06
 4.69790515e-06
 4.69790515e-06
 4.69790515e-06
 4.69790515e-06
 4.69790515e-06
 4.69790515e-06
 4.69790515e-06
 7.73556580e-12
 7.73556580e-12
 7.73556580e-12
 7.73556580e-12
 7.73556580e-12
 7.73556580e-12
 7.73556580e-12
 7.73556580e-12
 7.73556580e-12
 9.93431525e-12
 9.93431525e-12
 9.93431525e-12
 9.93431525e-12
 9.93431525e-12
 9.93431525e-12
 9.93431525e-12
 9.93431525e-12
 3.51669961e-11
 3.51669961e-11
 3.51669961e-11
 3.51669961e-11
 3.51669961e-11
 3.51669961e-11
 3.51669961e-11
 3.51669961e-11
 3.51669961e-11
 3.51669961e-11
 3.51669961e-11
 3.51669961e-11
 3.51669961e-11
 3.51669961e-11
 2.50734538e-11
 2.50734538e-11
 2.50734538e-11
 2.50734538e-11
 2.50734538e-11
 2.50734538e-11
 2.50734538e-11
 2.50734538e-11
 2.50734538e-11
 2.50734538e-11
 2.50734538e-11
 5.40991237e-12
 5.40991237e-12
 5.40991237e-12
 3.25791852e-12
 3.25791852e-12
 3.25791852e-12
 3.25791852e-12
 3.25791852e-12
 3.25791852e-12
 3.66565410e-12
 3.66565410e-12
 1.26671804e-12
 1.26671804e-12
 1.38349106e-12
 1.38349106e-12
 1.38349106e-12
 1.38349106e-12
)
)
1
(
101
(
 9.79296162e-07
 9.79296162e-07
 9.79296162e-07
 9.79296162e-07
 9.79296162e-07
 9.79296162e-07
 9.79296162e-07
 9.79296162e-07
 9.79296162e-07
 9.79296162e-07
 9.79296162e-07
 9.79296162e-07
 9.79296162e-07
 9.79296162e-07
 4.69790515e-06
 4.69790515e-06
 4.69790515e-06
 4.69790515e-06
 4.69790515e-06
 4.69790515e-06
 4.69790515e-06
 4.69790515e-06
 4.69790515e-06
 4.69790515e-06
 4.69790515e-06
 4.69790515e-06
 4.69790515e-06
 4.69790515e-06
 4.69790515e-06
 4.69790515e-06
 4.69790515e-06
 4.69790515e-06
 4.69790515e-06
 4.69790515e-06
 4.69790515e-06
 4.69790515e-06
 4.69790515e-06
 4.69790515e-06
 4.69790515e-06
 4.69790515e-06
 4.69790515e-06
 4.69790515e-06
 7.73556580e-12
 7.73556580e-12
 7.73556580e-12
 7.73556580e-12
 7.73556580e-12
 7.73556580e-12
 7.73556580e-12
 7.73556580e-12
 7.73556580e-12
 7.73556580e-12
 9.93431525e-12
 9.93431525e-12
 9.93431525e-12
 9.93431525e-12
 9.93431525e-12
 9.93431525e-12
 9.93431525e-12
 9.93431525e-12
 3.51669961e-11
 3.51669961e-11
 3.51669961e-11
 3.51669961e-11
 3.51669961e-11
 3.51669961e-11
 3.51669961e-11
 3.51669961e-11
 3.51669961e-11
 3.51669961e-11
 3.51669961e-11
 3.51669961e-11
 3.51669961e-11
 3.51669961e-11
 3.51669961e-11
 2.50734538e-11
 2.50734538e-11
 2.50734538e-11
 2.50734538e-11
 2.50734538e-11
 2.50734538e-11
 2.50734538e-11
 2.50734538e-11
 2.50734538e-11
 2.50734538e-11
 5.40991237e-12
 5.40991237e-12
 5.40991237e-12
 5.40991237e-12
 3.25791852e-12
 3.25791852e-12
 3.25791852e-12
 3.25791852e-12
 3.25791852e-12
 3.66565410e-12
 3.66565410e-12
 1.26671804e-12
 1.26671804e-12
 1.38349106e-12
 1.38349106e-12
 1.38349106e-12
)
)
1
(
101
(
 1.19661247e-06
 1.19661247e-06
 1.19661247e-06
 1.19661247e-06
 1.19661247e-06
 1.19661247e-06
 1.19661247e-06
 1.19661247e-06
 1.19661247e-06
 4.69790515e-06
 4.69790515e-06
 4.69790515e-06
 4.69790515e-06
 4.69790515e-06
 4.69790515e-06
 4.69790515e-06
 4.69790515e-06
 4.69790515e-06
 4.69790515e-06
 4.69790515e-06
 4.69790515e-06
 4.69790515e-06
 4.69790515e-06
 4.69790515e-06
 4.69790515e-06
 4.69790515e-06
 4.69790515e-06
 4.69790515e-06
 4.69790515e-06
 4.69790515e-06
 4.69790515e-06
 4.69790515e-06
 4.69790515e-06
 4.69790515e-06
 4.69790515e-06
 4.69790515e-06
 4.69790515e-06
 4.69790515e-06
 4.69790515e-06
 4.69790515e-06
 4.69790515e-06
 4.69790515e-06
 7.73556580e-12
 7.73556580e-12
 7.73556580e-12
 7.73556580e-12
 7.73556580e-12
 7.73556580e-12
 7.73556580e-12
 7.73556580e-12
 7.73556580e-12
 7.73556580e-12
 7.73556580e-12
 7.73556580e-12
 9.93431525e-12
 9.93431525e-12
 9.93431525e-12
 9.93431525e-12
 9.93431525e-12
 9.93431525e-12
 9.93431525e-12
 9.93431525e-12
 3.51669961e-11
 3.51669961e-11
 3.51669961e-11
 3.51669961e-11
 3.51669961e-11
 3.51669961e-11
 3.51669961e-11
 3.51669961e-11
 3.51669961e-11
 3.51669961e-11
 3.51669961e-11
 3.51669961e-11
 3.51669961e-11
 3.51669961e-11
 2.50734538e-11
 2.50734538e-11
 2.50734538e-11
 2.50734538e-11
 2.50734538e-11
 2.50734538e-11
 2.50734538e-11
 2.50734538e-11
 2.50734538e-11
 2.50734538e-11
 5.40991237e-12
 5.40991237e-12
 5.40991237e-12
 5.40991237e-12
 3.09448462e-12
 3.25791852e-12
 3.25791852e-12
 3.25791852e-12
 3.25791852e-12
 3.66565410e-12
 3.66565410e-12
 1.26671804e-12
 1.26671804e-12
 1.38349106e-12
 1.38349106e-12
)
)
1
(
101
(
 1.37334807e-06
 1.37334807e-06
 1.37334807e-06
 1.37334807e-06
 1.37334807e-06
 1.37334807e-06
 4.69790515e-06
 4.69790515e-06
 4.69790515e-06
 4.69790515e-06
 4.69790515e-06
 4.69790515e-06
 4.69790515e-06
 4.69790515e-06
 4.69790515e-06
 4.69790515e-06
 4.69790515e-06
 4.69790515e-06
 4.69790515e-06
 4.69790515e-06
 4.69790515e-06
 4.69790515e-06
 4.69790515e-06
 4.69790515e-06
 4.69790515e-06
 4.69790515e-06
 4.69790515e-06
 4.69790515e-06
 4.69790515e-06
 4.69790515e-06
 4.69790515e-06
 4.69790515e-06
 4.69790515e-06
 4.69790515e-06
 4.69790515e-06
 4.69790515e-06
 4.69790515e-06
 4.69790515e-06
 4.69790515e-06
 4.69790515e-06
 4.69790515e-06
 4.69790515e-06
 7.73556580e-12
 7.73556580e-12
 7.73556580e-12
 7.73556580e-12
 7.73556580e-12
 7.73556580e-12
 7.73556580e-12
 7.73556580e-12
 7.73556580e-12
 7.73556580e-12
 7.73556580e-12
 7.73556580e-12
 7.73556580e-12
 9.93431525e-12
 9.93431525e-12
 9.93431525e-12
 9.93431525e-12
 9.93431525e-12
 9.93431525e-12
 9.93431525e-12
 9.93431525e-12
 3.51669961e-11
 3.51669961e-11
 3.51669961e-11
 3.51669961e-11
 3.51669961e-11
 3.51669961e-11
 3.51669961e-11
 3.51669961e-11
 3.51669961e-11
 3.51669961e-11
 3.51669961e-11
 3.51669961e-11
 3.51669961e-11
 3.51669961e-11
 2.50734538e-11
 2.50734538e-11
 2.50734538e-11
 2.50734538e-11
 2.50734538e-11
 2.50734538e-11
 2.50734538e-11
 2.50734538e-11
 2.50734538e-11
 2.50734538e-11
 5.40991237e-12
 5.40991237e-12
 5.40991237e-12
 5.40991237e-12
 3.09448462e-12
 3.09448462e-12
 2.00199981e-12
 2.00199981e-12
 2.00199981e-12
 3.66565410e-12
 3.66565410e-12
 1.26671804e-12
 1.26671804e-12
 1.38349106e-12
)
)
1
(
101
(
 1.85148825e-06
 1.85148825e-06
 1.85148825e-06
 4.69790515e-06
 4.69790515e-06
 4.69790515e-06
 4.69790515e-06
 4.69790515e-06
 4.69790515e-06
 4.69790515e-06
 4.69790515e-06
 4.69790515e-06
 4.69790515e-06
 4.69790515e-06
 4.69790515e-06
 4.69790515e-06
 4.69790515e-06
 4.69790515e-06
 4.69790515e-06
 4.69790515e-06
 4.69790515e-06
 4.69790515e-06
 4.69790515e-06
 4.69790515e-06
 4.69790515e-06
 4.69790515e-06
 4.69790515e-06
 4.69790515e-06
 4.69790515e-06
 4.69790515e-06
 4.69790515e-06
 4.69790515e-06
 4.69790515e-06
 4.69790515e-06
 4.69790515e-06
 4.69790515e-06
 4.69790515e-06
 4.69790515e-06
 4.69790515e-06
 4.69790515e-06
 4.69790515e-06
 1.80181420e-12
 7.73556580e-12
 7.73556580e-12
 7.73556580e-12
 7.73556580e-12
 7.73556580e-12
 7.73556580e-12
 7.73556580e-12
 7.73556580e-12
 7.73556580e-12
 7.73556580e-12
 7.73556580e-12
 7.73556580e-12
 7.73556580e-12
 7.73556580e-12
 9.93431525e-12
 9.93431525e-12
 9.93431525e-12
 9.93431525e-12
 9.93431525e-12
 9.93431525e-12
 9.93431525e-12
 9.93431525e-12
 9.93431525e-12
 3.51669961e-11
 3.51669961e-11
 3.51669961e-11
 3.51669961e-11
 3.51669961e-11
 3.51669961e-11
 3.51669961e-11
 3.51669961e-11
 3.51669961e-11
 3.51669961e-11
 3.51669961e-11
 3.51669961e-11
 3.51669961e-11
 2.50734538e-11
 2.50734538e-11
 2.50734538e-11
 2.50734538e-11
 2.50734538e-11
 2.50734538e-11
 2.50734538e-11
 2.50734538e-11
 2.50734538e-11
 2.50734538e-11
 5.40991237e-12
 5.40991237e-12
 5.40991237e-12
 5.40991237e-12
 3.09448462e-12
 3.09448462e-12
 2.00199981e-12
 2.00199981e-12
 2.00199981e-12
 2.00199981e-12
 3.66565410e-12
 1.26671804e-12
 1.26671804e-12
)
)
1
(
101
(
 1.90264919e-06
 1.90264919e-06
 4.69790515e-06
 4.69790515e-06
 4.69790515e-06
 4.69790515e-06
 4.69790515e-06
 4.69790515e-06
 4.69790515e-06
 4.69790515e-06
 4.69790515e-06
 4.69790515e-06
 4.69790515e-06
 4.69790515e-06
 4.69790515e-06
 4.69790515e-06
 4.69790515e-06
 4.69790515e-06
 4.69790515e-06
 4.69790515e-06
 4.69790515e-06
 4.69790515e-06
 4.69790515e-06
 4.69790515e-06
 4.69790515e-06
 4.69790515e-06
 4.69790515e-06
 4.69790515e-06
 4.69790515e-06
 4.69790515e-06
 4.69790515e-06
 4.69790515e-06
 4.69790515e-06
 4.69790515e-06
 4.69790515e-06
 4.69790515e-06
 4.69790515e-06
 4.69790515e-06
 4.69790515e-06
 4.69790515e-06
 4.69790515e-06
 1.80181420e-12
 1.80181420e-12
 7.73556580e-12
 7.73556580e-12
 7.73556580e-12
 7.73556580e-12
 7.73556580e-12
 7.73556580e-12
 7.73556580e-12
 7.73556580e-12
 7.73556580e-12
 7.73556580e-12
 7.73556580e-12
 7.73556580e-12
 7.73556580e-12
 7.73556580e-12
 9.93431525e-12
 9.93431525e-12
 9.93431525e-12
 9.93431525e-12
 9.93431525e-12
 9.93431525e-12
 9.93431525e-12
 9.93431525e-12
 9.93431525e-12
 3.51669961e-11
 3.51669961e-11
 3.51669961e-11
 3.51669961e-11
 3.51669961e-11
 3.51669961e-11
 3.51669961e-11
 3.51669961e-11
 3.51669961e-11
 3.51669961e-11
 3.51669961e-11
 3.51669961e-11
 3.51669961e-11
 3.51669961e-11
 2.50734538e-11
 2.50734538e-11
 2.50734538e-11
 2.50734538e-11
 2.50734538e-11
 2.50734538e-11
 2.50734538e-11
 2.50734538e-11
 3.69871162e-12
 5.40991237e-12
 5.40991237e-12
 5.40991237e-12
 3.06492672e-15
 3.06492672e-15
 3.06492672e-15
 2.00199981e-12
 2.00199981e-12
 2.00199981e-12
 2.00199981e-12
 2.00199981e-12
 1.26671804e-12
)
)
1
(
101
(
 3.57755515e-07
 4.69790515e-06
 4.69790515e-06
 4.69790515e-06
 4.69790515e-06
 4.69790515e-06
 4.69790515e-06
 4.69790515e-06
 4.69790515e-06
 4.69790515e-06
 4.69790515e-06
 4.69790515e-06
 4.69790515e-06
 4.69790515e-06
 4.69790515e-06
 4.69790515e-06
 4.69790515e-06
 4.69790515e-06
 4.69790515e-06
 4.69790515e-06
 4.69790515e-06
 4.69790515e-06
 4.69790515e-06
 4.69790515e-06
 4.69790515e-06
 4.69790515e-06
 4.69790515e-06
 4.69790515e-06
 4.69790515e-06
 4.69790515e-06
 4.69790515e-06
 4.69790515e-06
 4.69790515e-06
 4.69790515e-06
 4.69790515e-06
 4.69790515e-06
 4.69790515e-06
 4.69790515e-06
 4.69790515e-06
 4.69790515e-06
 1.80181420e-12
 1.80181420e-12
 1.80181420e-12
 1.80181420e-12
 7.73556580e-12
 7.73556580e-12
 7.73556580e-12
 7.73556580e-12
 7.73556580e-12
 7.73556580e-12
 7.73556580e-12
 7.73556580e-12
 7.73556580e-12
 7.73556580e-12
 7.73556580e-12
 7.73556580e-12
 7.73556580e-12
 7.73556580e-12
 9.93431525e-12
 9.93431525e-12
 9.93431525e-12
 9.93431525e-12
 9.93431525e-12
 9.93431525e-12
 9.93431525e-12
 9.93431525e-12
 9.93431525e-12
 9.93431525e-12
 3.51669961e-11
 3.51669961e-11
 3.51669961e-11
 3.51669961e-11
 3.51669961e-11
 3.51669961e-11
 3.51669961e-11
 3.51669961e-11
 3.51669961e-11
 3.51669961e-11
 3.51669961e-11
 3.51669961e-11
 3.51669961e-11
 9.17242379e-12
 2.50734538e-11
 2.50734538e-11
 2.50734538e-11
 2.50734538e-11
 2.50734538e-11
 2.50734538e-11
 2.50734538e-11
 3.69871162e-12
 3.69871162e-12
 8.16382801e-13
 8.16382801e-13
 3.06492672e-15
 3.06492672e-15
 3.06492672e-15
 3.06492672e-15
 2.00199981e-12
 2.00199981e-12
 2.00199981e-12
 2.00199981e-12
)
)
1
(
101
(
 3.57755515e-07
 3.20879891e-06
 3.20879891e-06
 3.20879891e-06
 3.20879891e-06
 3.20879891e-06
 3.20879891e-06
 3.20879891e-06
 3.20879891e-06
 3.20879891e-06
 3.20879891e-06
 3.20879891e-06
 3.20879891e-06
 3.20879891e-06
 3.20879891e-06
 3.20879891e-06
 3.20879891e-06
 3.20879891e-06
 3.20879891e-06
 3.20879891e-06
 3.20879891e-06
 3.20879891e-06
 3.20879891e-06
 3.20879891e-06
 3.20879891e-06
 3.20879891e-06
 3.20879891e-06
 3.20879891e-06
 3.20879891e-06
 3.20879891e-06
 3.20879891e-06
 3.20879891e-06
 3.20879891e-06
 3.20879891e-06
 3.20879891e-06
 3.20879891e-06
 3.20879891e-06
 3.20879891e-06
 3.20879891e-06
 3.20879891e-06
 1.80181420e-12
 1.80181420e-12
 1.80181420e-12
 1.80181420e-12
 1.80181420e-12
 7.73556580e-12
 7.73556580e-12
 7.73556580e-12
 7.73556580e-12
 7.73556580e-12
 7.73556580e-12
 7.73556580e-12
 7.73556580e-12
 7.73556580e-12
 7.73556580e-12
 7.73556580e-12
 7.73556580e-12
 7.73556580e-12
 7.73556580e-12
 9.93431525e-12
 9.93431525e-12
 9.93431525e-12
 9.93431525e-12
 9.93431525e-12
 9.93431525e-12
 9.93431525e-12
 9.93431525e-12
 9.93431525e-12
 9.93431525e-12
 3.51669961e-11
 3.51669961e-11
 3.51669961e-11
 3.51669961e-11
 3.51669961e-11
 3.51669961e-11
 3.51669961e-11
 3.51669961e-11
 3.51669961e-11
 3.51669961e-11
 3.51669961e-11
 3.51669961e-11
 3.51669961e-11
 9.17242379e-12
 9.17242379e-12
 2.50734538e-11
 2.50734538e-11
 2.50734538e-11
 2.50734538e-11
 2.50734538e-11
 3.69871162e-12
 3.69871162e-12
 3.69871162e-12
 8.16382801e-13
 8.16382801e-13
 3.06492672e-15
 3.06492672e-15
 3.06492672e-15
 3.06492672e-15
 3.06492672e-15
 2.00199981e-12
 2.00199981e-12
)
)
1
(
101
(
 4.20860539e-06
 4.20860539e-06
 4.20860539e-06
 4.20860539e-06
 4.20860539e-06
 4.20860539e-06
 4.20860539e-06
 4.20860539e-06
 4.20860539e-06
 4.20860539e-06
 4.20860539e-06
 4.20860539e-06
 4.20860539e-06
 4.20860539e-06
 4.20860539e-06
 4.20860539e-06
 4.20860539e-06
 4.20860539e-06
 4.20860539e-06
 4.20860539e-06
 4.20860539e-06
 4.20860539e-06
 4.20860539e-06
 4.20860539e-06
 4.20860539e-06
 4.20860539e-06
 4.20860539e-06
 4.20860539e-06
 4.20860539e-06
 4.20860539e-06
 4.20860539e-06
 4.20860539e-06
 4.20860539e-06
 4.20860539e-06
 4.20860539e-06
 4.20860539e-06
 4.20860539e-06
 4.20860539e-06
 4.20860539e-06
 4.20860539e-06
 1.80181420e-12
 1.80181420e-12
 1.80181420e-12
 1.80181420e-12
 1.80181420e-12
 1.80181420e-12
 7.73556580e-12
 7.73556580e-12
 7.73556580e-12
 7.73556580e-12
 7.73556580e-12
 7.73556580e-12
 7.73556580e-12
 7.73556580e-12
 7.73556580e-12
 7.73556580e-12
 7.73556580e-12
 7.73556580e-12
 7.73556580e-12
 7.73556580e-12
 7.73556580e-12
 9.93431525e-12
 9.93431525e-12
 9.93431525e-12
 9.93431525e-12
 9.93431525e-12
 9.93431525e-12
 9.93431525e-12
 9.93431525e-12
 9.93431525e-12
 9.93431525e-12
 3.51669961e-11
 3.51669961e-11
 3.51669961e-11
 3.51669961e-11
 3.51669961e-11
 3.51669961e-11
 3.51669961e-11
 3.51669961e-11
 3.51669961e-11
 3.51669961e-11
 3.51669961e-11
 3.51669961e-11
 9.17242379e-12
 9.17242379e-12
 9.17242379e-12
 2.50734538e-11
 2.50734538e-11
 2.50734538e-11
 2.50734538e-11
 3.69871162e-12
 3.69871162e-12
 3.69871162e-12
 8.16382801e-13
 8.16382801e-13
 3.06492672e-15
 3.06492672e-15
 3.06492672e-15
 3.06492672e-15
 3.06492672e-15
 3.06492672e-15
)
)
1
(
101
(
 5.53725286e-06
 5.53725286e-06
 5.53725286e-06
 5.53725286e-06
 5.53725286e-06
 5.53725286e-06
 5.53725286e-06
 5.53725286e-06
 5.53725286e-06
 5.53725286e-06
 5.53725286e-06
 5.53725286e-06
 5.53725286e-06
 5.53725286e-06
 5.53725286e-06
 5.53725286e-06
 5.53725286e-06
 5.53725286e-06
 5.53725286e-06
 5.53725286e-06
 5.53725286e-06
 5.53725286e-06
 5.53725286e-06
 5.53725286e-06
 5.53725286e-06
 5.53725286e-06
 5.53725286e-06
 5.53725286e-06
 5.53725286e-06
 5.53725286e-06
 5.53725286e-06
 5.53725286e-06
 5.53725286e-06
 5.53725286e-06
 5.53725286e-06
 5.53725286e-06
 5.53725286e-06
 5.53725286e-06
 5.53725286e-06
 1.80181420e-12
 1.80181420e-12
 1.80181420e-12
 1.80181420e-12
 1.80181420e-12
 1.80181420e-12
 1.80181420e-12
 1.80181420e-12
 1.80181420e-12
 7.73556580e-12
 7.73556580e-12
 7.73556580e-12
 7.73556580e-12
 7.73556580e-12
 7.73556580e-12
 7.73556580e-12
 7.73556580e-12
 7.73556580e-12
 7.73556580e-12
 7.73556580e-12
 7.73556580e-12
 7.73556580e-12
 7.73556580e-12
 9.93431525e-12
 9.93431525e-12
 9.93431525e-12
 9.93431525e-12
 9.93431525e-12
 9.93431525e-12
 9.93431525e-12
 9.93431525e-12
 9.93431525e-12
 9.93431525e-12
 3.51669961e-11
 3.51669961e-11
 3.51669961e-11
 3.51669961e-11
 3.51669961e-11
 3.51669961e-11
 3.51669961e-11
 3.51669961e-11
 3.51669961e-11
 3.51669961e-11
 3.51669961e-11
 3.51669961e-11
 9.17242379e-12
 9.17242379e-12
 9.17242379e-12
 9.17242379e-12
 4.98965461e-12
 4.98965461e-12
 4.98965461e-12
 3.69871162e-12
 3.69871162e-12
 3.69871162e-12
 8.16382801e-13
 8.16382801e-13
 3.06492672e-15
 3.06492672e-15
 3.06492672e-15