/*--------------------------------*- C++ -*----------------------------------*\
| =========                 |                                                 |
| \\      /  F ield        | OpenFOAM: The Open Source CFD Toolbox           |
|  \\    /   O peration    | Version:  7                                     |
|   \\  /    A nd          | Web:      http://www.OpenFOAM.com               |
|    \\/     M anipulation |                                                 |
\*---------------------------------------------------------------------------*/

FoamFile
{
    version     2.0;
    format      ascii;
    class       dictionary;
    object      Y_OH_table;
}

Y_OH_table
2
(
101
(
1
(
101
(
 5.35644669e-09
 5.35644669e-09
 5.35644669e-09
 5.35644669e-09
 5.35644669e-09
 5.35644669e-09
 5.35644669e-09
 5.35644669e-09
 5.35644669e-09
 5.35644669e-09
 5.35644669e-09
 5.35644669e-09
 5.35644669e-09
 5.35644669e-09
 5.35644669e-09
 5.35644669e-09
 5.35644669e-09
 5.35644669e-09
 5.35644669e-09
 5.35644669e-09
 5.35644669e-09
 5.35644669e-09
 5.35644669e-09
 5.35644669e-09
 5.35644669e-09
 5.35644669e-09
 5.35644669e-09
 5.35644669e-09
 5.35644669e-09
 5.35644669e-09
 5.35644669e-09
 5.35644669e-09
 5.35644669e-09
 5.35644669e-09
 5.35644669e-09
 5.35644669e-09
 5.35644669e-09
 5.35644669e-09
 5.35644669e-09
 5.35644669e-09
 5.35644669e-09
 5.35644669e-09
 5.35644669e-09
 5.35644669e-09
 5.35644669e-09
 7.79277949e-12
 7.79277949e-12
 6.80630106e-11
 6.80630106e-11
 6.80630106e-11
 6.80630106e-11
 6.80630106e-11
 6.80630106e-11
 6.80630106e-11
 6.80630106e-11
 6.80630106e-11
 6.80630106e-11
 6.80630106e-11
 6.80630106e-11
 6.80630106e-11
 6.80630106e-11
 6.80630106e-11
 6.80630106e-11
 6.16164526e-11
 6.16164526e-11
 6.16164526e-11
 6.16164526e-11
 6.16164526e-11
 6.16164526e-11
 6.16164526e-11
 6.16164526e-11
 6.16164526e-11
 6.16164526e-11
 6.16164526e-11
 6.16164526e-11
 3.43449957e-12
 3.43449957e-12
 3.43449957e-12
 3.43449957e-12
 3.43449957e-12
 3.43449957e-12
 3.43449957e-12
 4.68796228e-12
 4.68796228e-12
 4.68796228e-12
 4.68796228e-12
 4.68796228e-12
 4.68796228e-12
 2.78519546e-12
 2.78519546e-12
 2.78519546e-12
 2.78519546e-12
 2.78519546e-12
 2.78519546e-12
 2.78519546e-12
 2.83165339e-13
 2.83165339e-13
 2.83165339e-13
 2.83165339e-13
 2.83165339e-13
 1.07676450e-15
)
)
1
(
101
(
 1.95207160e-07
 1.95207160e-07
 1.95207160e-07
 1.95207160e-07
 1.95207160e-07
 1.95207160e-07
 1.95207160e-07
 1.95207160e-07
 1.95207160e-07
 1.95207160e-07
 1.95207160e-07
 1.95207160e-07
 1.95207160e-07
 1.95207160e-07
 1.95207160e-07
 1.95207160e-07
 1.95207160e-07
 1.95207160e-07
 1.95207160e-07
 1.95207160e-07
 1.95207160e-07
 1.95207160e-07
 1.95207160e-07
 1.95207160e-07
 1.95207160e-07
 1.95207160e-07
 1.95207160e-07
 1.95207160e-07
 1.95207160e-07
 1.95207160e-07
 1.95207160e-07
 1.95207160e-07
 1.95207160e-07
 1.95207160e-07
 1.95207160e-07
 1.95207160e-07
 1.95207160e-07
 1.95207160e-07
 1.95207160e-07
 1.95207160e-07
 1.95207160e-07
 1.95207160e-07
 1.95207160e-07
 1.95207160e-07
 1.95207160e-07
 7.79277949e-12
 7.79277949e-12
 7.79277949e-12
 6.80630106e-11
 6.80630106e-11
 6.80630106e-11
 6.80630106e-11
 6.80630106e-11
 6.80630106e-11
 6.80630106e-11
 6.80630106e-11
 6.80630106e-11
 6.80630106e-11
 6.80630106e-11
 6.80630106e-11
 6.80630106e-11
 6.80630106e-11
 6.80630106e-11
 6.80630106e-11
 6.80630106e-11
 6.16164526e-11
 6.16164526e-11
 6.16164526e-11
 6.16164526e-11
 6.16164526e-11
 6.16164526e-11
 6.16164526e-11
 6.16164526e-11
 6.16164526e-11
 6.16164526e-11
 6.16164526e-11
 6.16164526e-11
 3.43449957e-12
 3.43449957e-12
 3.43449957e-12
 3.43449957e-12
 3.43449957e-12
 3.43449957e-12
 4.68796228e-12
 4.68796228e-12
 4.68796228e-12
 4.68796228e-12
 4.68796228e-12
 4.68796228e-12
 4.68796228e-12
 2.78519546e-12
 2.78519546e-12
 2.78519546e-12
 2.78519546e-12
 2.78519546e-12
 2.78519546e-12
 1.32105137e-12
 2.83165339e-13
 2.83165339e-13
 2.83165339e-13
 4.12658731e-14
)
)
1
(
101
(
 4.15957003e-07
 4.15957003e-07
 4.15957003e-07
 4.15957003e-07
 4.15957003e-07
 4.15957003e-07
 4.15957003e-07
 4.15957003e-07
 4.15957003e-07
 4.15957003e-07
 4.15957003e-07
 4.15957003e-07
 4.15957003e-07
 4.15957003e-07
 4.15957003e-07
 4.15957003e-07
 4.15957003e-07
 4.15957003e-07
 4.15957003e-07
 4.15957003e-07
 4.15957003e-07
 4.15957003e-07
 4.15957003e-07
 4.15957003e-07
 4.15957003e-07
 4.15957003e-07
 4.15957003e-07
 4.15957003e-07
 4.15957003e-07
 4.15957003e-07
 4.15957003e-07
 4.15957003e-07
 4.15957003e-07
 4.15957003e-07
 4.15957003e-07
 4.15957003e-07
 4.15957003e-07
 4.15957003e-07
 4.15957003e-07
 4.15957003e-07
 4.15957003e-07
 4.15957003e-07
 4.15957003e-07
 4.15957003e-07
 7.79277949e-12
 7.79277949e-12
 7.79277949e-12
 7.79277949e-12
 7.79277949e-12
 7.79277949e-12
 6.80630106e-11
 6.80630106e-11
 6.80630106e-11
 6.80630106e-11
 6.80630106e-11
 6.80630106e-11
 6.80630106e-11
 6.80630106e-11
 6.80630106e-11
 6.80630106e-11
 6.80630106e-11
 6.80630106e-11
 6.80630106e-11
 6.80630106e-11
 6.80630106e-11
 6.80630106e-11
 6.16164526e-11
 6.16164526e-11
 6.16164526e-11
 6.16164526e-11
 6.16164526e-11
 6.16164526e-11
 6.16164526e-11
 6.16164526e-11
 6.16164526e-11
 6.16164526e-11
 6.16164526e-11
 6.16164526e-11
 3.43449957e-12
 3.43449957e-12
 3.43449957e-12
 3.43449957e-12
 3.43449957e-12
 3.43449957e-12
 3.43449957e-12
 4.68796228e-12
 4.68796228e-12
 4.68796228e-12
 4.68796228e-12
 4.68796228e-12
 4.68796228e-12
 2.78519546e-12
 2.78519546e-12
 2.78519546e-12
 2.78519546e-12
 2.78519546e-12
 2.78519546e-12
 1.32105137e-12
 1.32105137e-12
 3.28922486e-13
 3.28922486e-13
)
)
1
(
101
(
 5.80874412e-07
 5.80874412e-07
 5.80874412e-07
 5.80874412e-07
 5.80874412e-07
 5.80874412e-07
 5.80874412e-07
 5.80874412e-07
 5.80874412e-07
 5.80874412e-07
 5.80874412e-07
 5.80874412e-07
 5.80874412e-07
 5.80874412e-07
 5.80874412e-07
 5.80874412e-07
 5.80874412e-07
 5.80874412e-07
 5.80874412e-07
 5.80874412e-07
 5.80874412e-07
 5.80874412e-07
 5.80874412e-07
 5.80874412e-07
 5.80874412e-07
 5.80874412e-07
 5.80874412e-07
 5.80874412e-07
 5.80874412e-07
 5.80874412e-07
 5.80874412e-07
 5.80874412e-07
 5.80874412e-07
 5.80874412e-07
 5.80874412e-07
 5.80874412e-07
 5.80874412e-07
 5.80874412e-07
 5.80874412e-07
 5.80874412e-07
 5.80874412e-07
 5.80874412e-07
 5.80874412e-07
 5.80874412e-07
 6.00991008e-12
 7.79277949e-12
 7.79277949e-12
 7.79277949e-12
 7.79277949e-12
 7.79277949e-12
 7.79277949e-12
 6.80630106e-11
 6.80630106e-11
 6.80630106e-11
 6.80630106e-11
 6.80630106e-11
 6.80630106e-11
 6.80630106e-11
 6.80630106e-11
 6.80630106e-11
 6.80630106e-11
 6.80630106e-11
 6.80630106e-11
 6.80630106e-11
 6.80630106e-11
 6.80630106e-11
 6.80630106e-11
 6.16164526e-11
 6.16164526e-11
 6.16164526e-11
 6.16164526e-11
 6.16164526e-11
 6.16164526e-11
 6.16164526e-11
 6.16164526e-11
 6.16164526e-11
 6.16164526e-11
 6.16164526e-11
 6.16164526e-11
 6.51063317e-12
 3.43449957e-12
 3.43449957e-12
 3.43449957e-12
 3.43449957e-12
 3.43449957e-12
 3.43449957e-12
 4.68796228e-12
 4.68796228e-12
 4.68796228e-12
 4.68796228e-12
 4.68796228e-12
 4.68796228e-12
 4.68796228e-12
 2.78519546e-12
 2.78519546e-12
 2.78519546e-12
 2.78519546e-12
 2.78519546e-12
 1.32105137e-12
 4.11821504e-15
 4.11821504e-15
)
)
1
(
101
(
 9.15218309e-07
 9.15218309e-07
 9.15218309e-07
 9.15218309e-07
 9.15218309e-07
 9.15218309e-07
 9.15218309e-07
 9.15218309e-07
 9.15218309e-07
 9.15218309e-07
 9.15218309e-07
 9.15218309e-07
 9.15218309e-07
 9.15218309e-07
 9.15218309e-07
 9.15218309e-07
 9.15218309e-07
 9.15218309e-07
 9.15218309e-07
 9.15218309e-07
 9.15218309e-07
 9.15218309e-07
 9.15218309e-07
 9.15218309e-07
 9.15218309e-07
 9.15218309e-07
 9.15218309e-07
 9.15218309e-07
 9.15218309e-07
 9.15218309e-07
 9.15218309e-07
 9.15218309e-07
 9.15218309e-07
 9.15218309e-07
 9.15218309e-07
 9.15218309e-07
 9.15218309e-07
 9.15218309e-07
 9.15218309e-07
 9.15218309e-07
 9.15218309e-07
 9.15218309e-07
 9.15218309e-07
 9.15218309e-07
 6.00991008e-12
 6.00991008e-12
 6.00991008e-12
 7.79277949e-12
 7.79277949e-12
 7.79277949e-12
 7.79277949e-12
 7.79277949e-12
 7.79277949e-12
 6.80630106e-11
 6.80630106e-11
 6.80630106e-11
 6.80630106e-11
 6.80630106e-11
 6.80630106e-11
 6.80630106e-11
 6.80630106e-11
 6.80630106e-11
 6.80630106e-11
 6.80630106e-11
 6.80630106e-11
 6.80630106e-11
 6.80630106e-11
 6.80630106e-11
 6.16164526e-11
 6.16164526e-11
 6.16164526e-11
 6.16164526e-11
 6.16164526e-11
 6.16164526e-11
 6.16164526e-11
 6.16164526e-11
 6.16164526e-11
 6.16164526e-11
 6.16164526e-11
 6.16164526e-11
 6.51063317e-12
 3.43449957e-12
 3.43449957e-12
 3.43449957e-12
 3.43449957e-12
 3.43449957e-12
 3.43449957e-12
 3.43449957e-12
 4.68796228e-12
 4.68796228e-12
 4.68796228e-12
 4.68796228e-12
 4.68796228e-12
 4.68796228e-12
 3.30883202e-12
 2.78519546e-12
 2.78519546e-12
 2.78519546e-12
 4.83426358e-13
 4.83426358e-13
 4.11821504e-15
)
)
1
(
101
(
 1.17536939e-06
 1.17536939e-06
 1.17536939e-06
 1.17536939e-06
 1.17536939e-06
 1.17536939e-06
 1.17536939e-06
 1.17536939e-06
 1.17536939e-06
 1.17536939e-06
 1.17536939e-06
 1.17536939e-06
 1.17536939e-06
 1.17536939e-06
 1.17536939e-06
 1.17536939e-06
 1.17536939e-06
 1.17536939e-06
 1.17536939e-06
 1.17536939e-06
 1.17536939e-06
 1.17536939e-06
 1.17536939e-06
 1.17536939e-06
 1.17536939e-06
 1.17536939e-06
 1.17536939e-06
 1.17536939e-06
 1.17536939e-06
 1.17536939e-06
 1.17536939e-06
 1.17536939e-06
 1.17536939e-06
 1.17536939e-06
 1.17536939e-06
 1.17536939e-06
 1.17536939e-06
 1.17536939e-06
 1.17536939e-06
 1.17536939e-06
 1.17536939e-06
 1.17536939e-06
 1.33826198e-05
 6.00991008e-12
 6.00991008e-12
 6.00991008e-12
 6.00991008e-12
 6.00991008e-12
 7.79277949e-12
 7.79277949e-12
 7.79277949e-12
 7.79277949e-12
 7.79277949e-12
 7.79277949e-12
 6.80630106e-11
 6.80630106e-11
 6.80630106e-11
 6.80630106e-11
 6.80630106e-11
 6.80630106e-11
 6.80630106e-11
 6.80630106e-11
 6.80630106e-11
 6.80630106e-11
 6.80630106e-11
 6.80630106e-11
 6.80630106e-11
 6.80630106e-11
 6.80630106e-11
 6.80630106e-11
 6.16164526e-11
 6.16164526e-11
 6.16164526e-11
 6.16164526e-11
 6.16164526e-11
 6.16164526e-11
 6.16164526e-11
 6.16164526e-11
 6.16164526e-11
 6.16164526e-11
 6.16164526e-11
 6.51063317e-12
 6.51063317e-12
 3.43449957e-12
 3.43449957e-12
 3.43449957e-12
 3.43449957e-12
 3.43449957e-12
 3.43449957e-12
 4.68796228e-12
 4.68796228e-12
 4.68796228e-12
 4.68796228e-12
 4.68796228e-12
 4.68796228e-12
 3.30883202e-12
 3.30883202e-12
 1.30528631e-12
 1.30528631e-12
 4.83426358e-13
 4.83426358e-13
)
)
1
(
101
(
 1.48631414e-06
 1.48631414e-06
 1.48631414e-06
 1.48631414e-06
 1.48631414e-06
 1.48631414e-06
 1.48631414e-06
 1.48631414e-06
 1.48631414e-06
 1.48631414e-06
 1.48631414e-06
 1.48631414e-06
 1.48631414e-06
 1.48631414e-06
 1.48631414e-06
 1.48631414e-06
 1.48631414e-06
 1.48631414e-06
 1.48631414e-06
 1.48631414e-06
 1.48631414e-06
 1.48631414e-06
 1.48631414e-06
 1.48631414e-06
 1.48631414e-06
 1.48631414e-06
 1.48631414e-06
 1.48631414e-06
 1.48631414e-06
 1.48631414e-06
 1.48631414e-06
 1.48631414e-06
 1.48631414e-06
 1.33826198e-05
 1.33826198e-05
 1.33826198e-05
 1.33826198e-05
 1.33826198e-05
 1.33826198e-05
 1.33826198e-05
 1.33826198e-05
 1.33826198e-05
 1.33826198e-05
 6.00991008e-12
 6.00991008e-12
 6.00991008e-12
 6.00991008e-12
 6.00991008e-12
 6.00991008e-12
 7.79277949e-12
 7.79277949e-12
 7.79277949e-12
 7.79277949e-12
 7.79277949e-12
 7.79277949e-12
 7.79277949e-12
 6.80630106e-11
 6.80630106e-11
 6.80630106e-11
 6.80630106e-11
 6.80630106e-11
 6.80630106e-11
 6.80630106e-11
 6.80630106e-11
 6.80630106e-11
 6.80630106e-11
 6.80630106e-11
 6.80630106e-11
 6.80630106e-11
 6.80630106e-11
 6.80630106e-11
 6.16164526e-11
 6.16164526e-11
 6.16164526e-11
 6.16164526e-11
 6.16164526e-11
 6.16164526e-11
 6.16164526e-11
 6.16164526e-11
 6.16164526e-11
 6.16164526e-11
 6.16164526e-11
 6.51063317e-12
 6.51063317e-12
 3.43449957e-12
 3.43449957e-12
 3.43449957e-12
 3.43449957e-12
 3.43449957e-12
 3.43449957e-12
 3.43449957e-12
 4.68796228e-12
 4.68796228e-12
 4.68796228e-12
 4.68796228e-12
 4.68796228e-12
 3.30883202e-12
 3.30883202e-12
 1.30528631e-12
 1.30528631e-12
 4.83426358e-13
)
)
1
(
101
(
 2.09026155e-06
 2.09026155e-06
 2.09026155e-06
 2.09026155e-06
 2.09026155e-06
 2.09026155e-06
 2.09026155e-06
 2.09026155e-06
 2.09026155e-06
 2.09026155e-06
 2.09026155e-06
 2.09026155e-06
 2.09026155e-06
 2.09026155e-06
 2.09026155e-06
 2.09026155e-06
 2.09026155e-06
 2.09026155e-06
 2.09026155e-06
 2.09026155e-06
 2.09026155e-06
 2.09026155e-06
 2.09026155e-06
 2.09026155e-06
 2.09026155e-06
 2.09026155e-06
 1.33826198e-05
 1.33826198e-05
 1.33826198e-05
 1.33826198e-05
 1.33826198e-05
 1.33826198e-05
 1.33826198e-05
 1.33826198e-05
 1.33826198e-05
 1.33826198e-05
 1.33826198e-05
 1.33826198e-05
 1.33826198e-05
 1.33826198e-05
 1.33826198e-05
 1.33826198e-05
 1.33826198e-05
 6.00991008e-12
 6.00991008e-12
 6.00991008e-12
 6.00991008e-12
 6.00991008e-12
 6.00991008e-12
 6.00991008e-12
 7.79277949e-12
 7.79277949e-12
 7.79277949e-12
 7.79277949e-12
 7.79277949e-12
 7.79277949e-12
 7.79277949e-12
 6.80630106e-11
 6.80630106e-11
 6.80630106e-11
 6.80630106e-11
 6.80630106e-11
 6.80630106e-11
 6.80630106e-11
 6.80630106e-11
 6.80630106e-11
 6.80630106e-11
 6.80630106e-11
 6.80630106e-11
 6.80630106e-11
 6.80630106e-11
 6.80630106e-11
 6.16164526e-11
 6.16164526e-11
 6.16164526e-11
 6.16164526e-11
 6.16164526e-11
 6.16164526e-11
 6.16164526e-11
 6.16164526e-11
 6.16164526e-11
 6.16164526e-11
 6.16164526e-11
 6.51063317e-12
 6.51063317e-12
 6.51063317e-12
 3.43449957e-12
 3.43449957e-12
 3.43449957e-12
 3.43449957e-12
 3.43449957e-12
 3.43449957e-12
 5.60683233e-12
 4.68796228e-12
 4.68796228e-12
 4.68796228e-12
 1.21736472e-12
 1.21736472e-12
 1.21736472e-12
 1.30528631e-12
 1.30528631e-12
)
)
1
(
101
(
 2.39077630e-06
 2.39077630e-06
 2.39077630e-06
 2.39077630e-06
 2.39077630e-06
 2.39077630e-06
 2.39077630e-06
 2.39077630e-06
 2.39077630e-06
 2.39077630e-06
 2.39077630e-06
 2.39077630e-06
 2.39077630e-06
 2.39077630e-06
 2.39077630e-06
 2.39077630e-06
 2.39077630e-06
 2.39077630e-06
 2.39077630e-06
 1.33826198e-05
 1.33826198e-05
 1.33826198e-05
 1.33826198e-05
 1.33826198e-05
 1.33826198e-05
 1.33826198e-05
 1.33826198e-05
 1.33826198e-05
 1.33826198e-05
 1.33826198e-05
 1.33826198e-05
 1.33826198e-05
 1.33826198e-05
 1.33826198e-05
 1.33826198e-05
 1.33826198e-05
 1.33826198e-05
 1.33826198e-05
 1.33826198e-05
 1.33826198e-05
 1.33826198e-05
 1.33826198e-05
 6.00991008e-12
 6.00991008e-12
 6.00991008e-12
 6.00991008e-12
 6.00991008e-12
 6.00991008e-12
 6.00991008e-12
 6.00991008e-12
 6.00991008e-12
 7.79277949e-12
 7.79277949e-12
 7.79277949e-12
 7.79277949e-12
 7.79277949e-12
 7.79277949e-12
 7.79277949e-12
 7.79277949e-12
 6.80630106e-11
 6.80630106e-11
 6.80630106e-11
 6.80630106e-11
 6.80630106e-11
 6.80630106e-11
 6.80630106e-11
 6.80630106e-11
 6.80630106e-11
 6.80630106e-11
 6.80630106e-11
 6.80630106e-11
 6.80630106e-11
 6.80630106e-11
 6.16164526e-11
 6.16164526e-11
 6.16164526e-11
 6.16164526e-11
 6.16164526e-11
 6.16164526e-11
 6.16164526e-11
 6.16164526e-11
 6.16164526e-11
 6.16164526e-11
 6.16164526e-11
 6.51063317e-12
 6.51063317e-12
 6.51063317e-12
 3.43449957e-12
 3.43449957e-12
 3.43449957e-12
 3.43449957e-12
 3.43449957e-12
 3.43449957e-12
 5.60683233e-12
 5.60683233e-12
 1.32651355e-12
 1.32651355e-12
 1.21736472e-12
 1.21736472e-12
 1.21736472e-12
 1.21736472e-12
)
)
1
(
101
(
 3.17880697e-06
 3.17880697e-06
 3.17880697e-06
 3.17880697e-06
 3.17880697e-06
 3.17880697e-06
 3.17880697e-06
 3.17880697e-06
 3.17880697e-06
 3.17880697e-06
 3.17880697e-06
 3.17880697e-06
 3.17880697e-06
 3.17880697e-06
 1.33826198e-05
 1.33826198e-05
 1.33826198e-05
 1.33826198e-05
 1.33826198e-05
 1.33826198e-05
 1.33826198e-05
 1.33826198e-05
 1.33826198e-05
 1.33826198e-05
 1.33826198e-05
 1.33826198e-05
 1.33826198e-05
 1.33826198e-05
 1.33826198e-05
 1.33826198e-05
 1.33826198e-05
 1.33826198e-05
 1.33826198e-05
 1.33826198e-05
 1.33826198e-05
 1.33826198e-05
 1.33826198e-05
 1.33826198e-05
 1.33826198e-05
 1.33826198e-05
 1.33826198e-05
 1.33826198e-05
 6.00991008e-12
 6.00991008e-12
 6.00991008e-12
 6.00991008e-12
 6.00991008e-12
 6.00991008e-12
 6.00991008e-12
 6.00991008e-12
 6.00991008e-12
 6.00991008e-12
 7.79277949e-12
 7.79277949e-12
 7.79277949e-12
 7.79277949e-12
 7.79277949e-12
 7.79277949e-12
 7.79277949e-12
 7.79277949e-12
 6.80630106e-11
 6.80630106e-11
 6.80630106e-11
 6.80630106e-11
 6.80630106e-11
 6.80630106e-11
 6.80630106e-11
 6.80630106e-11
 6.80630106e-11
 6.80630106e-11
 6.80630106e-11
 6.80630106e-11
 6.80630106e-11
 6.80630106e-11
 6.80630106e-11
 6.16164526e-11
 6.16164526e-11
 6.16164526e-11
 6.16164526e-11
 6.16164526e-11
 6.16164526e-11
 6.16164526e-11
 6.16164526e-11
 6.16164526e-11
 6.16164526e-11
 6.51063317e-12
 6.51063317e-12
 6.51063317e-12
 6.51063317e-12
 3.43449957e-12
 3.43449957e-12
 3.43449957e-12
 3.43449957e-12
 3.43449957e-12
 5.60683233e-12
 5.60683233e-12
 1.32651355e-12
 1.32651355e-12
 1.21736472e-12
 1.21736472e-12
 1.21736472e-12
)
)
1
(
101
(
 3.80517241e-06
 3.80517241e-06
 3.80517241e-06
 3.80517241e-06
 3.80517241e-06
 3.80517241e-06
 3.80517241e-06
 3.80517241e-06
 3.80517241e-06
 1.33826198e-05
 1.33826198e-05
 1.33826198e-05
 1.33826198e-05
 1.33826198e-05
 1.33826198e-05
 1.33826198e-05
 1.33826198e-05
 1.33826198e-05
 1.33826198e-05
 1.33826198e-05
 1.33826198e-05
 1.33826198e-05
 1.33826198e-05
 1.33826198e-05
 1.33826198e-05
 1.33826198e-05
 1.33826198e-05
 1.33826198e-05
 1.33826198e-05
 1.33826198e-05
 1.33826198e-05
 1.33826198e-05
 1.33826198e-05
 1.33826198e-05
 1.33826198e-05
 1.33826198e-05
 1.33826198e-05
 1.33826198e-05
 1.33826198e-05
 1.33826198e-05
 1.33826198e-05
 1.33826198e-05
 6.00991008e-12
 6.00991008e-12
 6.00991008e-12
 6.00991008e-12
 6.00991008e-12
 6.00991008e-12
 6.00991008e-12
 6.00991008e-12
 6.00991008e-12
 6.00991008e-12
 6.00991008e-12
 6.00991008e-12
 7.79277949e-12
 7.79277949e-12
 7.79277949e-12
 7.79277949e-12
 7.79277949e-12
 7.79277949e-12
 7.79277949e-12
 7.79277949e-12
 6.80630106e-11
 6.80630106e-11
 6.80630106e-11
 6.80630106e-11
 6.80630106e-11
 6.80630106e-11
 6.80630106e-11
 6.80630106e-11
 6.80630106e-11
 6.80630106e-11
 6.80630106e-11
 6.80630106e-11
 6.80630106e-11
 6.80630106e-11
 6.16164526e-11
 6.16164526e-11
 6.16164526e-11
 6.16164526e-11
 6.16164526e-11
 6.16164526e-11
 6.16164526e-11
 6.16164526e-11
 6.16164526e-11
 6.16164526e-11
 6.51063317e-12
 6.51063317e-12
 6.51063317e-12
 6.51063317e-12
 3.16603243e-12
 3.43449957e-12
 3.43449957e-12
 3.43449957e-12
 3.43449957e-12
 5.60683233e-12
 5.60683233e-12
 1.32651355e-12
 1.32651355e-12
 1.21736472e-12
 1.21736472e-12
)
)
1
(
101
(
 4.38229597e-06
 4.38229597e-06
 4.38229597e-06
 4.38229597e-06
 4.38229597e-06
 4.38229597e-06
 1.33826198e-05
 1.33826198e-05
 1.33826198e-05
 1.33826198e-05
 1.33826198e-05
 1.33826198e-05
 1.33826198e-05
 1.33826198e-05
 1.33826198e-05
 1.33826198e-05
 1.33826198e-05
 1.33826198e-05
 1.33826198e-05
 1.33826198e-05
 1.33826198e-05
 1.33826198e-05
 1.33826198e-05
 1.33826198e-05
 1.33826198e-05
 1.33826198e-05
 1.33826198e-05
 1.33826198e-05
 1.33826198e-05
 1.33826198e-05
 1.33826198e-05
 1.33826198e-05
 1.33826198e-05
 1.33826198e-05
 1.33826198e-05
 1.33826198e-05
 1.33826198e-05
 1.33826198e-05
 1.33826198e-05
 1.33826198e-05
 1.33826198e-05
 1.33826198e-05
 6.00991008e-12
 6.00991008e-12
 6.00991008e-12
 6.00991008e-12
 6.00991008e-12
 6.00991008e-12
 6.00991008e-12
 6.00991008e-12
 6.00991008e-12
 6.00991008e-12
 6.00991008e-12
 6.00991008e-12
 6.00991008e-12
 7.79277949e-12
 7.79277949e-12
 7.79277949e-12
 7.79277949e-12
 7.79277949e-12
 7.79277949e-12
 7.79277949e-12
 7.79277949e-12
 6.80630106e-11
 6.80630106e-11
 6.80630106e-11
 6.80630106e-11
 6.80630106e-11
 6.80630106e-11
 6.80630106e-11
 6.80630106e-11
 6.80630106e-11
 6.80630106e-11
 6.80630106e-11
 6.80630106e-11
 6.80630106e-11
 6.80630106e-11
 6.16164526e-11
 6.16164526e-11
 6.16164526e-11
 6.16164526e-11
 6.16164526e-11
 6.16164526e-11
 6.16164526e-11
 6.16164526e-11
 6.16164526e-11
 6.16164526e-11
 6.51063317e-12
 6.51063317e-12
 6.51063317e-12
 6.51063317e-12
 3.16603243e-12
 3.16603243e-12
 2.17842537e-12
 2.17842537e-12
 2.17842537e-12
 5.60683233e-12
 5.60683233e-12
 1.32651355e-12
 1.32651355e-12
 1.21736472e-12
)
)
1
(
101
(
 5.73795173e-06
 5.73795173e-06
 5.73795173e-06
 1.33826198e-05
 1.33826198e-05
 1.33826198e-05
 1.33826198e-05
 1.33826198e-05
 1.33826198e-05
 1.33826198e-05
 1.33826198e-05
 1.33826198e-05
 1.33826198e-05
 1.33826198e-05
 1.33826198e-05
 1.33826198e-05
 1.33826198e-05
 1.33826198e-05
 1.33826198e-05
 1.33826198e-05
 1.33826198e-05
 1.33826198e-05
 1.33826198e-05
 1.33826198e-05
 1.33826198e-05
 1.33826198e-05
 1.33826198e-05
 1.33826198e-05
 1.33826198e-05
 1.33826198e-05
 1.33826198e-05
 1.33826198e-05
 1.33826198e-05
 1.33826198e-05
 1.33826198e-05
 1.33826198e-05
 1.33826198e-05
 1.33826198e-05
 1.33826198e-05
 1.33826198e-05
 1.33826198e-05
 1.19001493e-12
 6.00991008e-12
 6.00991008e-12
 6.00991008e-12
 6.00991008e-12
 6.00991008e-12
 6.00991008e-12
 6.00991008e-12
 6.00991008e-12
 6.00991008e-12
 6.00991008e-12
 6.00991008e-12
 6.00991008e-12
 6.00991008e-12
 6.00991008e-12
 7.79277949e-12
 7.79277949e-12
 7.79277949e-12
 7.79277949e-12
 7.79277949e-12
 7.79277949e-12
 7.79277949e-12
 7.79277949e-12
 7.79277949e-12
 6.80630106e-11
 6.80630106e-11
 6.80630106e-11
 6.80630106e-11
 6.80630106e-11
 6.80630106e-11
 6.80630106e-11
 6.80630106e-11
 6.80630106e-11
 6.80630106e-11
 6.80630106e-11
 6.80630106e-11
 6.80630106e-11
 6.16164526e-11
 6.16164526e-11
 6.16164526e-11
 6.16164526e-11
 6.16164526e-11
 6.16164526e-11
 6.16164526e-11
 6.16164526e-11
 6.16164526e-11
 6.16164526e-11
 6.51063317e-12
 6.51063317e-12
 6.51063317e-12
 6.51063317e-12
 3.16603243e-12
 3.16603243e-12
 2.17842537e-12
 2.17842537e-12
 2.17842537e-12
 2.17842537e-12
 5.60683233e-12
 1.32651355e-12
 1.32651355e-12
)
)
1
(
101
(
 5.68371322e-06
 5.68371322e-06
 1.33826198e-05
 1.33826198e-05
 1.33826198e-05
 1.33826198e-05
 1.33826198e-05
 1.33826198e-05
 1.33826198e-05
 1.33826198e-05
 1.33826198e-05
 1.33826198e-05
 1.33826198e-05
 1.33826198e-05
 1.33826198e-05
 1.33826198e-05
 1.33826198e-05
 1.33826198e-05
 1.33826198e-05
 1.33826198e-05
 1.33826198e-05
 1.33826198e-05
 1.33826198e-05
 1.33826198e-05
 1.33826198e-05
 1.33826198e-05
 1.33826198e-05
 1.33826198e-05
 1.33826198e-05
 1.33826198e-05
 1.33826198e-05
 1.33826198e-05
 1.33826198e-05
 1.33826198e-05
 1.33826198e-05
 1.33826198e-05
 1.33826198e-05
 1.33826198e-05
 1.33826198e-05
 1.33826198e-05
 1.33826198e-05
 1.19001493e-12
 1.19001493e-12
 6.00991008e-12
 6.00991008e-12
 6.00991008e-12
 6.00991008e-12
 6.00991008e-12
 6.00991008e-12
 6.00991008e-12
 6.00991008e-12
 6.00991008e-12
 6.00991008e-12
 6.00991008e-12
 6.00991008e-12
 6.00991008e-12
 6.00991008e-12
 7.79277949e-12
 7.79277949e-12
 7.79277949e-12
 7.79277949e-12
 7.79277949e-12
 7.79277949e-12
 7.79277949e-12
 7.79277949e-12
 7.79277949e-12
 6.80630106e-11
 6.80630106e-11
 6.80630106e-11
 6.80630106e-11
 6.80630106e-11
 6.80630106e-11
 6.80630106e-11
 6.80630106e-11
 6.80630106e-11
 6.80630106e-11
 6.80630106e-11
 6.80630106e-11
 6.80630106e-11
 6.80630106e-11
 6.16164526e-11
 6.16164526e-11
 6.16164526e-11
 6.16164526e-11
 6.16164526e-11
 6.16164526e-11
 6.16164526e-11
 6.16164526e-11
 3.75175328e-12
 6.51063317e-12
 6.51063317e-12
 6.51063317e-12
 3.22241858e-15
 3.22241858e-15
 3.22241858e-15
 2.17842537e-12
 2.17842537e-12
 2.17842537e-12
 2.17842537e-12
 2.17842537e-12
 1.32651355e-12
)
)
1
(
101
(
 2.00137040e-06
 1.33826198e-05
 1.33826198e-05
 1.33826198e-05
 1.33826198e-05
 1.33826198e-05
 1.33826198e-05
 1.33826198e-05
 1.33826198e-05
 1.33826198e-05
 1.33826198e-05
 1.33826198e-05
 1.33826198e-05
 1.33826198e-05
 1.33826198e-05
 1.33826198e-05
 1.33826198e-05
 1.33826198e-05
 1.33826198e-05
 1.33826198e-05
 1.33826198e-05
 1.33826198e-05
 1.33826198e-05
 1.33826198e-05
 1.33826198e-05
 1.33826198e-05
 1.33826198e-05
 1.33826198e-05
 1.33826198e-05
 1.33826198e-05
 1.33826198e-05
 1.33826198e-05
 1.33826198e-05
 1.33826198e-05
 1.33826198e-05
 1.33826198e-05
 1.33826198e-05
 1.33826198e-05
 1.33826198e-05
 1.33826198e-05
 1.19001493e-12
 1.19001493e-12
 1.19001493e-12
 1.19001493e-12
 6.00991008e-12
 6.00991008e-12
 6.00991008e-12
 6.00991008e-12
 6.00991008e-12
 6.00991008e-12
 6.00991008e-12
 6.00991008e-12
 6.00991008e-12
 6.00991008e-12
 6.00991008e-12
 6.00991008e-12
 6.00991008e-12
 6.00991008e-12
 7.79277949e-12
 7.79277949e-12
 7.79277949e-12
 7.79277949e-12
 7.79277949e-12
 7.79277949e-12
 7.79277949e-12
 7.79277949e-12
 7.79277949e-12
 7.79277949e-12
 6.80630106e-11
 6.80630106e-11
 6.80630106e-11
 6.80630106e-11
 6.80630106e-11
 6.80630106e-11
 6.80630106e-11
 6.80630106e-11
 6.80630106e-11
 6.80630106e-11
 6.80630106e-11
 6.80630106e-11
 6.80630106e-11
 8.45510587e-12
 6.16164526e-11
 6.16164526e-11
 6.16164526e-11
 6.16164526e-11
 6.16164526e-11
 6.16164526e-11
 6.16164526e-11
 3.75175328e-12
 3.75175328e-12
 5.88286245e-13
 5.88286245e-13
 3.22241858e-15
 3.22241858e-15
 3.22241858e-15
 3.22241858e-15
 2.17842537e-12
 2.17842537e-12
 2.17842537e-12
 2.17842537e-12
)
)
1
(
101
(
 2.00137040e-06
 9.37503728e-06
 9.37503728e-06
 9.37503728e-06
 9.37503728e-06
 9.37503728e-06
 9.37503728e-06
 9.37503728e-06
 9.37503728e-06
 9.37503728e-06
 9.37503728e-06
 9.37503728e-06
 9.37503728e-06
 9.37503728e-06
 9.37503728e-06
 9.37503728e-06
 9.37503728e-06
 9.37503728e-06
 9.37503728e-06
 9.37503728e-06
 9.37503728e-06
 9.37503728e-06
 9.37503728e-06
 9.37503728e-06
 9.37503728e-06
 9.37503728e-06
 9.37503728e-06
 9.37503728e-06
 9.37503728e-06
 9.37503728e-06
 9.37503728e-06
 9.37503728e-06
 9.37503728e-06
 9.37503728e-06
 9.37503728e-06
 9.37503728e-06
 9.37503728e-06
 9.37503728e-06
 9.37503728e-06
 9.37503728e-06
 1.19001493e-12
 1.19001493e-12
 1.19001493e-12
 1.19001493e-12
 1.19001493e-12
 6.00991008e-12
 6.00991008e-12
 6.00991008e-12
 6.00991008e-12
 6.00991008e-12
 6.00991008e-12
 6.00991008e-12
 6.00991008e-12
 6.00991008e-12
 6.00991008e-12
 6.00991008e-12
 6.00991008e-12
 6.00991008e-12
 6.00991008e-12
 7.79277949e-12
 7.79277949e-12
 7.79277949e-12
 7.79277949e-12
 7.79277949e-12
 7.79277949e-12
 7.79277949e-12
 7.79277949e-12
 7.79277949e-12
 7.79277949e-12
 6.80630106e-11
 6.80630106e-11
 6.80630106e-11
 6.80630106e-11
 6.80630106e-11
 6.80630106e-11
 6.80630106e-11
 6.80630106e-11
 6.80630106e-11
 6.80630106e-11
 6.80630106e-11
 6.80630106e-11
 6.80630106e-11
 8.45510587e-12
 8.45510587e-12
 6.16164526e-11
 6.16164526e-11
 6.16164526e-11
 6.16164526e-11
 6.16164526e-11
 3.75175328e-12
 3.75175328e-12
 3.75175328e-12
 5.88286245e-13
 5.88286245e-13
 3.22241858e-15
 3.22241858e-15
 3.22241858e-15
 3.22241858e-15
 3.22241858e-15
 2.17842537e-12
 2.17842537e-12
)
)
1
(
101
(
 1.21246875e-05
 1.21246875e-05
 1.21246875e-05
 1.21246875e-05
 1.21246875e-05
 1.21246875e-05
 1.21246875e-05
 1.21246875e-05
 1.21246875e-05
 1.21246875e-05
 1.21246875e-05
 1.21246875e-05
 1.21246875e-05
 1.21246875e-05
 1.21246875e-05
 1.21246875e-05
 1.21246875e-05
 1.21246875e-05
 1.21246875e-05
 1.21246875e-05
 1.21246875e-05
 1.21246875e-05
 1.21246875e-05
 1.21246875e-05
 1.21246875e-05
 1.21246875e-05
 1.21246875e-05
 1.21246875e-05
 1.21246875e-05
 1.21246875e-05
 1.21246875e-05
 1.21246875e-05
 1.21246875e-05
 1.21246875e-05
 1.21246875e-05
 1.21246875e-05
 1.21246875e-05
 1.21246875e-05
 1.21246875e-05
 1.21246875e-05
 1.19001493e-12
 1.19001493e-12
 1.19001493e-12
 1.19001493e-12
 1.19001493e-12
 1.19001493e-12
 6.00991008e-12
 6.00991008e-12
 6.00991008e-12
 6.00991008e-12
 6.00991008e-12
 6.00991008e-12
 6.00991008e-12
 6.00991008e-12
 6.00991008e-12
 6.00991008e-12
 6.00991008e-12
 6.00991008e-12
 6.00991008e-12
 6.00991008e-12
 6.00991008e-12
 7.79277949e-12
 7.79277949e-12
 7.79277949e-12
 7.79277949e-12
 7.79277949e-12
 7.79277949e-12
 7.79277949e-12
 7.79277949e-12
 7.79277949e-12
 7.79277949e-12
 6.80630106e-11
 6.80630106e-11
 6.80630106e-11
 6.80630106e-11
 6.80630106e-11
 6.80630106e-11
 6.80630106e-11
 6.80630106e-11
 6.80630106e-11
 6.80630106e-11
 6.80630106e-11
 6.80630106e-11
 8.45510587e-12
 8.45510587e-12
 8.45510587e-12
 6.16164526e-11
 6.16164526e-11
 6.16164526e-11
 6.16164526e-11
 3.75175328e-12
 3.75175328e-12
 3.75175328e-12
 5.88286245e-13
 5.88286245e-13
 3.22241858e-15
 3.22241858e-15
 3.22241858e-15
 3.22241858e-15
 3.22241858e-15
 3.22241858e-15
)
)
1
(
101
(
 1.53356018e-05
 1.53356018e-05
 1.53356018e-05
 1.53356018e-05
 1.53356018e-05
 1.53356018e-05
 1.53356018e-05
 1.53356018e-05
 1.53356018e-05
 1.53356018e-05
 1.53356018e-05
 1.53356018e-05
 1.53356018e-05
 1.53356018e-05
 1.53356018e-05
 1.53356018e-05
 1.53356018e-05
 1.53356018e-05
 1.53356018e-05
 1.53356018e-05
 1.53356018e-05
 1.53356018e-05
 1.53356018e-05
 1.53356018e-05
 1.53356018e-05
 1.53356018e-05
 1.53356018e-05
 1.53356018e-05
 1.53356018e-05
 1.53356018e-05
 1.53356018e-05
 1.53356018e-05
 1.53356018e-05
 1.53356018e-05
 1.53356018e-05
 1.53356018e-05
 1.53356018e-05
 1.53356018e-05
 1.53356018e-05
 1.19001493e-12
 1.19001493e-12
 1.19001493e-12
 1.19001493e-12
 1.19001493e-12
 1.19001493e-12
 1.19001493e-12
 1.19001493e-12
 1.19001493e-12
 6.00991008e-12
 6.00991008e-12
 6.00991008e-12
 6.00991008e-12
 6.00991008e-12
 6.00991008e-12
 6.00991008e-12
 6.00991008e-12
 6.00991008e-12
 6.00991008e-12
 6.00991008e-12
 6.00991008e-12
 6.00991008e-12
 6.00991008e-12
 7.79277949e-12
 7.79277949e-12
 7.79277949e-12
 7.79277949e-12
 7.79277949e-12
 7.79277949e-12
 7.79277949e-12
 7.79277949e-12
 7.79277949e-12
 7.79277949e-12
 6.80630106e-11
 6.80630106e-11
 6.80630106e-11
 6.80630106e-11
 6.80630106e-11
 6.80630106e-11
 6.80630106e-11
 6.80630106e-11
 6.80630106e-11
 6.80630106e-11
 6.80630106e-11
 6.80630106e-11
 8.45510587e-12
 8.45510587e-12
 8.45510587e-12
 8.45510587e-12
 5.51466167e-12
 5.51466167e-12
 5.51466167e-12
 3.75175328e-12
 3.75175328e-12
 3.75175328e-12
 5.88286245e-13
 5.88286245e-13
 3.22241858e-15
 3.22241858e-15
 3.22241858e-15